
              Welcome to ANSYS Fluent 2021 R2

              Copyright 1987-2021 ANSYS, Inc. All Rights Reserved.
              Unauthorized use, distribution or duplication is prohibited.
              This product is subject to U.S. laws governing export and re-export.
              For full Legal Notice, see documentation.

Build Time: May 28 2021 13:54:56 EDT  Build Id: 10201  
 

     --------------------------------------------------------------
     This is an academic version of ANSYS FLUENT. Usage of this product
     license is limited to the terms and conditions specified in your ANSYS
     license form, additional terms section.
     --------------------------------------------------------------
Host spawning Node 0 on machine "WL-CH-009" (win64).

-------------------------------------------------------------------------------
ID    Hostname   Core   O.S.         PID    Vendor                       
-------------------------------------------------------------------------------
n31   WL-CH-009  32/36  Windows-x64  24608  Intel(R) Xeon(R) W-2295      
n30   WL-CH-009  31/36  Windows-x64  41424  Intel(R) Xeon(R) W-2295      
n29   WL-CH-009  30/36  Windows-x64  23640  Intel(R) Xeon(R) W-2295      
n28   WL-CH-009  29/36  Windows-x64  36024  Intel(R) Xeon(R) W-2295      
n27   WL-CH-009  28/36  Windows-x64  39772  Intel(R) Xeon(R) W-2295      
n26   WL-CH-009  27/36  Windows-x64  38556  Intel(R) Xeon(R) W-2295      
n25   WL-CH-009  26/36  Windows-x64  4012   Intel(R) Xeon(R) W-2295      
n24   WL-CH-009  25/36  Windows-x64  18916  Intel(R) Xeon(R) W-2295      
n23   WL-CH-009  24/36  Windows-x64  17036  Intel(R) Xeon(R) W-2295      
n22   WL-CH-009  23/36  Windows-x64  14056  Intel(R) Xeon(R) W-2295      
n21   WL-CH-009  22/36  Windows-x64  34056  Intel(R) Xeon(R) W-2295      
n20   WL-CH-009  21/36  Windows-x64  23380  Intel(R) Xeon(R) W-2295      
n19   WL-CH-009  20/36  Windows-x64  36068  Intel(R) Xeon(R) W-2295      
n18   WL-CH-009  19/36  Windows-x64  22648  Intel(R) Xeon(R) W-2295      
n17   WL-CH-009  18/36  Windows-x64  41988  Intel(R) Xeon(R) W-2295      
n16   WL-CH-009  17/36  Windows-x64  28888  Intel(R) Xeon(R) W-2295      
n15   WL-CH-009  16/36  Windows-x64  46064  Intel(R) Xeon(R) W-2295      
n14   WL-CH-009  15/36  Windows-x64  25108  Intel(R) Xeon(R) W-2295      
n13   WL-CH-009  14/36  Windows-x64  27028  Intel(R) Xeon(R) W-2295      
n12   WL-CH-009  13/36  Windows-x64  38352  Intel(R) Xeon(R) W-2295      
-------------------------------------------------------------------------------
ID    Hostname   Core   O.S.         PID    Vendor                       
-------------------------------------------------------------------------------
n11   WL-CH-009  12/36  Windows-x64  28688  Intel(R) Xeon(R) W-2295      
n10   WL-CH-009  11/36  Windows-x64  39668  Intel(R) Xeon(R) W-2295      
n9    WL-CH-009  10/36  Windows-x64  27320  Intel(R) Xeon(R) W-2295      
n8    WL-CH-009  9/36   Windows-x64  42252  Intel(R) Xeon(R) W-2295      
n7    WL-CH-009  8/36   Windows-x64  35712  Intel(R) Xeon(R) W-2295      
n6    WL-CH-009  7/36   Windows-x64  29552  Intel(R) Xeon(R) W-2295      
n5    WL-CH-009  6/36   Windows-x64  22440  Intel(R) Xeon(R) W-2295      
n4    WL-CH-009  5/36   Windows-x64  33400  Intel(R) Xeon(R) W-2295      
n3    WL-CH-009  4/36   Windows-x64  28916  Intel(R) Xeon(R) W-2295      
n2    WL-CH-009  3/36   Windows-x64  44756  Intel(R) Xeon(R) W-2295      
n1    WL-CH-009  2/36   Windows-x64  37256  Intel(R) Xeon(R) W-2295      
n0*   WL-CH-009  1/36   Windows-x64  39356  Intel(R) Xeon(R) W-2295      
host  WL-CH-009         Windows-x64  32620  Intel(R) Xeon(R) W-2295      

MPI Option Selected: intel
Selected system interconnect: default
-------------------------------------------------------------------------------

Cleanup script file is E:\\MATLAB\\RANS_optimisation\\cleanup-fluent-WL-CH-009-32620.bat

Posting ANSYS Product Improvement Program startup data
Done.

Reading journal file E:\MATLAB\RANS_optimisation\run10\fluent_input.jou...

> /sync-chdir E:\MATLAB\RANS_optimisation\run10

> /file/read-case "grid.msh"
Reading "grid.msh"...

Buffering for file scan...

  112722 quadrilateral cells, zone  9.
  224998 2D interior faces, zone  2.
Warning: Reversing 238 faces, zone  2.
     237 2D pressure-inlet faces, zone  3.
Warning: Reversing 237 faces, zone  3.
     477 2D pressure-outlet faces, zone  4.
Warning: Reversing 477 faces, zone  4.
     477 2D pressure-outlet faces, zone  5.
     207 2D pressure-outlet faces, zone  6.
     253 2D wall faces, zone  7.
Warning: Reversing 15 faces, zone  7.
     253 2D wall faces, zone  8.
Warning: Reversing 223 faces, zone  8.
  113674 nodes.

Building...
     mesh
	auto partitioning mesh by Metis (fast),
	distributing mesh
		parts................................,
		faces................................,
		nodes................................,
		cells................................,
        bandwidth reduction using Reverse Cuthill-McKee: 2716/83 = 32.7229
     materials,
     interface,
     domains,
     zones,
	fluid-9
	wall-8
	wall-7
	pressure-outlet-6
	pressure-outlet-5
	pressure-outlet-4
	pressure-inlet-3
	interior-2
     parallel,
Done.

Preparing mesh for display...
Done.
 

> /define/boundary-conditions/modify-zones/zone-name 3 inlet 

> /define/boundary-conditions/modify-zones/zone-name 4 upper 

> /define/boundary-conditions/modify-zones/zone-name 5 lower 

> /define/boundary-conditions/modify-zones/zone-name 6 outlet

> /define/boundary-conditions/modify-zones/zone-name 7 upper-blade

> /define/boundary-conditions/modify-zones/zone-name 8 lower-blade

> /define/materials/change-create air air air is a fluid
yes 
Density
ideal-gas no data required.

yes 
Cp (Specific Heat)
constant 1005 
yes 
Thermal Conductivity
expression "DynamicViscosity*1005 [J/(kg K)]/0.72"
 yes 
Viscosity
sutherland three-coefficient-method 5.83247e-04 273 110.4 
no no no

Note: Enabling energy equation as required by material density method.

> /define/operating-conditions/operating-pressure 0

> /define/models/viscous/kw-sst? yes

> /define/boundary-conditions/zone-type inlet pressure-inlet 

> /define/boundary-conditions/pressure-inlet (inlet)
inlet yes no 74575.2 no 46984 no 300 no yes no no yes 0.5 1

> /define/boundary-conditions/zone-type outlet pressure-outlet 

> /define/boundary-conditions/bc-settings/pressure-outlet 0. 65 

> /define/boundary-conditions/pressure-outlet (outlet upper lower)
outlet yes no 46984 no 300 no yes no no yes 0.5 1 yes no no

> /define/boundary-conditions/copy-bc outlet (upper lower)Copy outlet boundary conditions to lower
Copy outlet boundary conditions to upper


> /define/boundary-conditions/wall (upper-blade lower-blade)
upper-blade 0 no 0 no no no 0 no no no no 0 no 0.5 no 1

> /define/boundary-conditions/copy-bc upper-blade (lower-blade)Copy upper-blade boundary conditions to lower-blade


> /define/models/solver/densit-based-implicit yes

> /file/read-data E:\MATLAB\RANS_optimisation\clean.dat

Reading "E:\MATLAB\RANS_optimisation\clean.dat"...



Warning: case and data files are inconsistent; zone 7, case [1399,1651], data [1399,1652]
Warning: case and data files are inconsistent; zone 8, case [1652,1904], data [1653,1904]
Warning: case and data files are inconsistent; zone 7, case [1399,1651], data [1399,1652]
Warning: case and data files are inconsistent; zone 8, case [1652,1904], data [1653,1904]
Warning: case and data files are inconsistent; zone 7, case [1399,1651], data [1399,1652]
Warning: case and data files are inconsistent; zone 8, case [1652,1904], data [1653,1904]
Warning: case and data files are inconsistent; zone 7, case [1399,1651], data [1399,1652]
Warning: case and data files are inconsistent; zone 8, case [1652,1904], data [1653,1904]
Warning: case and data files are inconsistent; zone 7, case [1399,1651], data [1399,1652]
Warning: case and data files are inconsistent; zone 8, case [1652,1904], data [1653,1904]
Warning: case and data files are inconsistent; zone 7, case [1399,1651], data [1399,1652]
Warning: case and data files are inconsistent; zone 8, case [1652,1904], data [1653,1904]
Warning: case and data files are inconsistent; zone 7, case [1399,1651], data [1399,1652]
Warning: case and data files are inconsistent; zone 8, case [1652,1904], data [1653,1904]
Warning: case and data files are inconsistent; zone 7, case [1399,1651], data [1399,1652]
Warning: case and data files are inconsistent; zone 8, case [1652,1904], data [1653,1904]
Warning: case and data files are inconsistent; zone 7, case [1399,1651], data [1399,1652]
Warning: case and data files are inconsistent; zone 8, case [1652,1904], data [1653,1904]
Warning: case and data files are inconsistent; zone 7, case [1399,1651], data [1399,1652]
Warning: case and data files are inconsistent; zone 8, case [1652,1904], data [1653,1904]
Warning: case and data files are inconsistent; zone 7, case [1399,1651], data [1399,1652]
Warning: case and data files are inconsistent; zone 8, case [1652,1904], data [1653,1904]
Warning: case and data files are inconsistent; zone 7, case [1399,1651], data [1399,1652]
Warning: case and data files are inconsistent; zone 8, case [1652,1904], data [1653,1904]
Warning: case and data files are inconsistent; zone 7, case [1399,1651], data [1399,1652]
Warning: case and data files are inconsistent; zone 8, case [1652,1904], data [1653,1904]
Parallel variables...
Done.

> ;/solve/initialize/initialize-flow
;/solve/initialize/compute-defaults/pressure-inlet inlet
;/solve/initialize/initialize-flow yes
;/solve/initialize/hyb-initialization
/solve/iterate 2000

  iter  continuity  x-velocity  y-velocity      energy           k       omega     time/iter
  2419  9.9521e-04  3.5719e-04  6.8654e-05  9.7828e-04  1.7105e-04  4.2984e-05  0:00:00 2000
  2420  9.1210e-02  6.1477e-02  5.4628e-02  9.1202e-02  4.1092e-03  1.5735e-02  0:00:00 1999
  2421  7.8380e-02  4.7277e-02  5.2650e-02  7.8759e-02  3.9447e-03  1.0016e-02  0:00:00 1998
  2422  6.1814e-02  3.3942e-02  5.0606e-02  6.2077e-02  3.7577e-03  8.1608e-03  0:00:00 1997
  2423  4.7925e-02  2.5788e-02  4.4491e-02  4.7704e-02  3.5746e-03  6.9024e-03  0:00:00 1996
  2424  3.7945e-02  2.1338e-02  3.6742e-02  3.7404e-02  3.3908e-03  6.2984e-03  0:00:00 1995
  2425  3.1230e-02  1.8787e-02  2.9230e-02  3.0672e-02  3.2081e-03  5.7799e-03  0:33:14 1994
  2426  2.6980e-02  1.7064e-02  2.2971e-02  2.6562e-02  3.0291e-03  5.2790e-03  0:26:34 1993
  2427  2.4525e-02  1.5705e-02  1.8255e-02  2.4265e-02  2.8529e-03  4.7803e-03  0:21:15 1992
  2428  2.3066e-02  1.4486e-02  1.4973e-02  2.2927e-02  2.6873e-03  4.3234e-03  0:16:59 1991
  2429  2.1960e-02  1.3312e-02  1.2840e-02  2.1900e-02  2.5344e-03  3.8176e-03  0:13:35 1990

  iter  continuity  x-velocity  y-velocity      energy           k       omega     time/iter
  2430  2.0878e-02  1.2141e-02  1.1514e-02  2.0862e-02  2.3934e-03  3.3298e-03  0:10:52 1989
  2431  1.9701e-02  1.0961e-02  1.0672e-02  1.9701e-02  2.2665e-03  2.9358e-03  0:08:41 1988
  2432  1.8437e-02  9.7916e-03  1.0080e-02  1.8431e-02  2.1546e-03  2.6801e-03  0:06:57 1987
  2433  1.7154e-02  8.6672e-03  9.5837e-03  1.7126e-02  2.0582e-03  2.4836e-03  0:05:33 1986
  2434  1.5929e-02  7.6378e-03  9.1123e-03  1.5865e-02  1.9734e-03  2.3368e-03  0:11:03 1985
  2435  1.4814e-02  6.7538e-03  8.6329e-03  1.4706e-02  1.8979e-03  2.2434e-03  0:08:50 1984
  2436  1.3843e-02  6.0892e-03  8.1426e-03  1.3690e-02  1.8310e-03  2.2020e-03  0:07:04 1983
  2437  1.3028e-02  5.6698e-03  7.6494e-03  1.2830e-02  1.7713e-03  2.1782e-03  0:05:39 1982
  2438  1.2382e-02  5.4909e-03  7.1680e-03  1.2142e-02  1.7180e-03  2.1726e-03  0:04:31 1981
  2439  1.1912e-02  5.5271e-03  6.7199e-03  1.1634e-02  1.6713e-03  2.1836e-03  0:03:37 1980
  2440  1.1616e-02  5.7021e-03  6.3200e-03  1.1304e-02  1.6296e-03  2.1983e-03  0:02:53 1979

  iter  continuity  x-velocity  y-velocity      energy           k       omega     time/iter
  2441  1.1479e-02  5.9539e-03  5.9661e-03  1.1136e-02  1.5924e-03  2.2076e-03  0:02:19 1978
  2442  1.1461e-02  6.2239e-03  5.6604e-03  1.1089e-02  1.5593e-03  2.2120e-03  0:01:51 1977
  2443  1.1559e-02  6.4757e-03  5.4131e-03  1.1163e-02  1.5297e-03  2.2069e-03  0:01:29 1976
  2444  1.1779e-02  6.6806e-03  5.2202e-03  1.1365e-02  1.5029e-03  2.1985e-03  0:01:11 1975
  2445  1.2137e-02  6.8234e-03  5.0732e-03  1.1709e-02  1.4794e-03  2.2027e-03  0:07:31 1974
  2446  1.2653e-02  6.9038e-03  4.9661e-03  1.2217e-02  1.4587e-03  2.2071e-03  0:06:01 1973
  2447  1.3336e-02  6.9265e-03  4.8865e-03  1.2894e-02  1.4408e-03  2.2022e-03  0:04:49 1972
  2448  1.4158e-02  6.8982e-03  4.8193e-03  1.3716e-02  1.4266e-03  2.1845e-03  0:03:51 1971
  2449  1.5101e-02  6.8272e-03  4.7551e-03  1.4661e-02  1.4147e-03  2.1532e-03  0:03:05 1970
  2450  1.6125e-02  6.7213e-03  4.6885e-03  1.5691e-02  1.4057e-03  2.1162e-03  0:02:28 1969
  2451  1.7178e-02  6.5915e-03  4.6103e-03  1.6752e-02  1.4001e-03  2.0700e-03  0:01:58 1968

  iter  continuity  x-velocity  y-velocity      energy           k       omega     time/iter
  2452  1.8206e-02  6.4505e-03  4.5081e-03  1.7789e-02  1.3956e-03  2.0215e-03  0:01:34 1967
  2453  1.9164e-02  6.3075e-03  4.3930e-03  1.8757e-02  1.3929e-03  1.9752e-03  0:01:15 1966
  2454  2.0024e-02  6.1800e-03  4.2542e-03  1.9628e-02  1.3912e-03  1.9342e-03  0:01:00 1965
  2455  2.0806e-02  6.0768e-03  4.0908e-03  2.0423e-02  1.3905e-03  1.8944e-03  0:07:21 1964
  2456  2.1493e-02  6.0098e-03  3.9142e-03  2.1125e-02  1.3907e-03  1.8582e-03  0:05:53 1963
  2457  2.2073e-02  5.9788e-03  3.7369e-03  2.1719e-02  1.3918e-03  1.8244e-03  0:04:42 1962
  2458  2.2519e-02  5.9826e-03  3.5775e-03  2.2181e-02  1.3939e-03  1.8015e-03  0:03:45 1961
  2459  2.2808e-02  6.0129e-03  3.4370e-03  2.2485e-02  1.3976e-03  1.7932e-03  0:03:00 1960
  2460  2.2925e-02  6.0682e-03  3.2928e-03  2.2616e-02  1.4024e-03  1.7907e-03  0:02:24 1959
  2461  2.2888e-02  6.1337e-03  3.1733e-03  2.2593e-02  1.4098e-03  1.7950e-03  0:01:55 1958
  2462  2.2715e-02  6.2030e-03  3.0823e-03  2.2432e-02  1.4190e-03  1.7988e-03  0:01:32 1957

  iter  continuity  x-velocity  y-velocity      energy           k       omega     time/iter
  2463  2.2438e-02  6.2664e-03  3.0335e-03  2.2165e-02  1.4308e-03  1.8036e-03  0:01:14 1956
  2464  2.2084e-02  6.3221e-03  2.9935e-03  2.1820e-02  1.4436e-03  1.8123e-03  0:07:30 1955
  2465  2.1656e-02  6.3560e-03  2.9738e-03  2.1400e-02  1.4579e-03  1.8092e-03  0:06:00 1954
  2466  2.1143e-02  6.3632e-03  2.9792e-03  2.0892e-02  1.4706e-03  1.8072e-03  0:04:48 1953
  2467  2.0558e-02  6.3633e-03  2.9780e-03  2.0311e-02  1.4841e-03  1.8045e-03  0:03:50 1952
  2468  1.9906e-02  6.3489e-03  2.9578e-03  1.9660e-02  1.4994e-03  1.8079e-03  0:03:04 1951
  2469  1.9202e-02  6.3203e-03  2.9636e-03  1.8956e-02  1.5175e-03  1.8096e-03  0:02:27 1950
  2470  1.8463e-02  6.2786e-03  2.9824e-03  1.8215e-02  1.5347e-03  1.8091e-03  0:01:58 1949
  2471  1.7706e-02  6.2227e-03  3.0075e-03  1.7453e-02  1.5498e-03  1.8095e-03  0:01:34 1948
  2472  1.6942e-02  6.1510e-03  3.0273e-03  1.6686e-02  1.5642e-03  1.8091e-03  0:01:15 1947
  2473  1.6189e-02  6.0717e-03  3.0288e-03  1.5929e-02  1.5751e-03  1.8097e-03  0:01:00 1946

  iter  continuity  x-velocity  y-velocity      energy           k       omega     time/iter
  2474  1.5440e-02  5.9863e-03  2.9836e-03  1.5176e-02  1.5904e-03  1.7991e-03  0:00:48 1945
  2475  1.4703e-02  5.8948e-03  2.9589e-03  1.4431e-02  1.6035e-03  1.7879e-03  0:07:07 1944
  2476  1.3998e-02  5.8045e-03  2.9461e-03  1.3720e-02  1.6175e-03  1.7808e-03  0:05:42 1943
  2477  1.3340e-02  5.7163e-03  2.9370e-03  1.3057e-02  1.6294e-03  1.7753e-03  0:04:33 1942
  2478  1.2731e-02  5.6235e-03  2.9313e-03  1.2446e-02  1.6392e-03  1.7749e-03  0:03:38 1941
  2479  1.2189e-02  5.5256e-03  2.9349e-03  1.1903e-02  1.6503e-03  1.7746e-03  0:02:55 1940
  2480  1.1712e-02  5.4309e-03  2.9132e-03  1.1428e-02  1.6612e-03  1.7709e-03  0:02:20 1939
  2481  1.1313e-02  5.3338e-03  2.8820e-03  1.1036e-02  1.6754e-03  1.7646e-03  0:01:52 1938
  2482  1.0957e-02  5.2401e-03  2.8527e-03  1.0687e-02  1.6850e-03  1.7475e-03  0:01:29 1937
  2483  1.0653e-02  5.1472e-03  2.8340e-03  1.0388e-02  1.6958e-03  1.7325e-03  0:01:11 1936
  2484  1.0391e-02  5.0528e-03  2.8099e-03  1.0134e-02  1.7072e-03  1.7210e-03  0:00:57 1935

  iter  continuity  x-velocity  y-velocity      energy           k       omega     time/iter
  2485  1.0183e-02  4.9576e-03  2.7838e-03  9.9337e-03  1.7170e-03  1.7087e-03  0:07:12 1934
  2486  1.0026e-02  4.8594e-03  2.7691e-03  9.7874e-03  1.7279e-03  1.6917e-03  0:05:46 1933
  2487  9.9301e-03  4.7639e-03  2.7421e-03  9.7049e-03  1.7371e-03  1.6787e-03  0:04:36 1932
  2488  9.8560e-03  4.6728e-03  2.6950e-03  9.6408e-03  1.7445e-03  1.6645e-03  0:03:41 1931
  2489  9.8117e-03  4.5777e-03  2.6576e-03  9.6063e-03  1.7555e-03  1.6518e-03  0:02:57 1930
  2490  9.7917e-03  4.4868e-03  2.6245e-03  9.5960e-03  1.7659e-03  1.6369e-03  0:02:21 1929
  2491  9.8048e-03  4.3998e-03  2.5894e-03  9.6195e-03  1.7732e-03  1.6159e-03  0:01:53 1928
  2492  9.8290e-03  4.3203e-03  2.5534e-03  9.6531e-03  1.7822e-03  1.6027e-03  0:01:30 1927
  2493  9.8628e-03  4.2436e-03  2.5109e-03  9.6956e-03  1.7911e-03  1.5902e-03  0:01:12 1926
  2494  9.9132e-03  4.1694e-03  2.4731e-03  9.7541e-03  1.7989e-03  1.5776e-03  0:00:58 1925
  2495  9.9641e-03  4.1005e-03  2.4235e-03  9.8111e-03  1.8077e-03  1.5656e-03  0:07:11 1924

  iter  continuity  x-velocity  y-velocity      energy           k       omega     time/iter
  2496  1.0022e-02  4.0339e-03  2.3802e-03  9.8739e-03  1.8156e-03  1.5553e-03  0:05:45 1923
  2497  1.0095e-02  3.9737e-03  2.3369e-03  9.9519e-03  1.8229e-03  1.5411e-03  0:04:36 1922
  2498  1.0161e-02  3.9171e-03  2.2873e-03  1.0021e-02  1.8294e-03  1.5281e-03  0:03:40 1921
  2499  1.0234e-02  3.8650e-03  2.2416e-03  1.0098e-02  1.8367e-03  1.5150e-03  0:02:56 1920
  2500  1.0299e-02  3.8197e-03  2.2047e-03  1.0167e-02  1.8427e-03  1.5080e-03  0:02:21 1919
  2501  1.0364e-02  3.7791e-03  2.1602e-03  1.0236e-02  1.8492e-03  1.4930e-03  0:01:53 1918
  2502  1.0425e-02  3.7429e-03  2.1147e-03  1.0300e-02  1.8567e-03  1.4782e-03  0:01:30 1917
  2503  1.0468e-02  3.7089e-03  2.0739e-03  1.0346e-02  1.8633e-03  1.4658e-03  0:01:12 1916
  2504  1.0502e-02  3.6769e-03  2.0398e-03  1.0382e-02  1.8698e-03  1.4567e-03  0:00:58 1915
  2505  1.0525e-02  3.6482e-03  2.0022e-03  1.0406e-02  1.8770e-03  1.4459e-03  0:07:09 1914
  2506  1.0538e-02  3.6246e-03  1.9697e-03  1.0422e-02  1.8843e-03  1.4329e-03  0:05:43 1913

  iter  continuity  x-velocity  y-velocity      energy           k       omega     time/iter
  2507  1.0545e-02  3.6034e-03  1.9401e-03  1.0433e-02  1.8923e-03  1.4193e-03  0:04:34 1912
  2508  1.0534e-02  3.5843e-03  1.9150e-03  1.0425e-02  1.9015e-03  1.4104e-03  0:03:39 1911
  2509  1.0507e-02  3.5637e-03  1.8885e-03  1.0400e-02  1.9102e-03  1.4004e-03  0:02:55 1910
  2510  1.0473e-02  3.5453e-03  1.8647e-03  1.0368e-02  1.9188e-03  1.3894e-03  0:02:20 1909
  2511  1.0427e-02  3.5351e-03  1.8431e-03  1.0325e-02  1.9286e-03  1.3777e-03  0:01:52 1908
  2512  1.0381e-02  3.5286e-03  1.8277e-03  1.0283e-02  1.9387e-03  1.3645e-03  0:07:51 1907
  2513  1.0322e-02  3.5280e-03  1.8104e-03  1.0226e-02  1.9483e-03  1.3517e-03  0:06:17 1906
  2514  1.0260e-02  3.5329e-03  1.7978e-03  1.0169e-02  1.9579e-03  1.3409e-03  0:05:01 1905
  2515  1.0197e-02  3.5368e-03  1.7867e-03  1.0110e-02  1.9670e-03  1.3282e-03  0:04:01 1904
  2516  1.0123e-02  3.5348e-03  1.7792e-03  1.0040e-02  1.9761e-03  1.3174e-03  0:03:13 1903
  2517  1.0035e-02  3.5363e-03  1.7809e-03  9.9552e-03  1.9860e-03  1.3058e-03  0:02:34 1902

  iter  continuity  x-velocity  y-velocity      energy           k       omega     time/iter
  2518  9.9452e-03  3.5338e-03  1.7741e-03  9.8690e-03  1.9952e-03  1.2955e-03  0:02:03 1901
  2519  9.8593e-03  3.5389e-03  1.7742e-03  9.7864e-03  2.0044e-03  1.2860e-03  0:01:38 1900
  2520  9.7728e-03  3.5432e-03  1.7713e-03  9.7031e-03  2.0135e-03  1.2745e-03  0:01:19 1899
  2521  9.6830e-03  3.5445e-03  1.7742e-03  9.6158e-03  2.0216e-03  1.2630e-03  0:01:03 1898
  2522  9.5740e-03  3.5503e-03  1.7818e-03  9.5080e-03  2.0297e-03  1.2554e-03  0:07:10 1897
  2523  9.4650e-03  3.5586e-03  1.7939e-03  9.4002e-03  2.0376e-03  1.2481e-03  0:05:44 1896
  2524  9.3663e-03  3.5670e-03  1.8018e-03  9.3027e-03  2.0444e-03  1.2409e-03  0:04:35 1895
  2525  9.2855e-03  3.5724e-03  1.8091e-03  9.2240e-03  2.0505e-03  1.2326e-03  0:03:40 1894
  2526  9.2110e-03  3.5739e-03  1.8176e-03  9.1509e-03  2.0561e-03  1.2229e-03  0:02:56 1893
  2527  9.1393e-03  3.5668e-03  1.8187e-03  9.0804e-03  2.0607e-03  1.2137e-03  0:02:20 1892
  2528  9.0783e-03  3.5493e-03  1.8195e-03  9.0203e-03  2.0647e-03  1.2078e-03  0:01:52 1891

  iter  continuity  x-velocity  y-velocity      energy           k       omega     time/iter
  2529  9.0283e-03  3.5366e-03  1.8207e-03  8.9709e-03  2.0689e-03  1.2029e-03  0:01:30 1890
  2530  8.9962e-03  3.5276e-03  1.8262e-03  8.9391e-03  2.0733e-03  1.1989e-03  0:01:12 1889
  2531  8.9764e-03  3.5202e-03  1.8358e-03  8.9193e-03  2.0772e-03  1.1954e-03  0:00:57 1888
  2532  8.9598e-03  3.5079e-03  1.8464e-03  8.9021e-03  2.0807e-03  1.1921e-03  0:07:03 1887
  2533  8.9517e-03  3.4908e-03  1.8485e-03  8.8932e-03  2.0843e-03  1.1868e-03  0:05:38 1886
  2534  8.9596e-03  3.4715e-03  1.8520e-03  8.9005e-03  2.0877e-03  1.1792e-03  0:04:31 1885
  2535  8.9861e-03  3.4537e-03  1.8538e-03  8.9267e-03  2.0908e-03  1.1710e-03  0:03:36 1884
  2536  9.0225e-03  3.4213e-03  1.8546e-03  8.9629e-03  2.0939e-03  1.1636e-03  0:02:53 1883
  2537  9.0563e-03  3.3871e-03  1.8461e-03  8.9953e-03  2.0971e-03  1.1560e-03  0:02:18 1882
  2538  9.0919e-03  3.3485e-03  1.8362e-03  9.0288e-03  2.1001e-03  1.1502e-03  0:01:51 1881
  2539  9.1335e-03  3.3123e-03  1.8295e-03  9.0684e-03  2.1034e-03  1.1451e-03  0:01:28 1880

  iter  continuity  x-velocity  y-velocity      energy           k       omega     time/iter
  2540  9.1822e-03  3.2802e-03  1.8178e-03  9.1155e-03  2.1063e-03  1.1405e-03  0:01:11 1879
  2541  9.2344e-03  3.2481e-03  1.8113e-03  9.1662e-03  2.1095e-03  1.1348e-03  0:00:57 1878
  2542  9.2847e-03  3.2102e-03  1.8074e-03  9.2151e-03  2.1115e-03  1.1253e-03  0:07:01 1877
  2543  9.3204e-03  3.1682e-03  1.7999e-03  9.2487e-03  2.1139e-03  1.1180e-03  0:05:36 1876
  2544  9.3510e-03  3.1260e-03  1.7883e-03  9.2771e-03  2.1170e-03  1.1104e-03  0:04:29 1875
  2545  9.3773e-03  3.0852e-03  1.7780e-03  9.3012e-03  2.1202e-03  1.1028e-03  0:03:35 1874
  2546  9.4009e-03  3.0450e-03  1.7691e-03  9.3229e-03  2.1229e-03  1.0938e-03  0:02:52 1873
  2547  9.4141e-03  3.0042e-03  1.7538e-03  9.3344e-03  2.1256e-03  1.0857e-03  0:02:17 1872
  2548  9.4093e-03  2.9598e-03  1.7386e-03  9.3273e-03  2.1293e-03  1.0793e-03  0:01:50 1871
  2549  9.3945e-03  2.9165e-03  1.7239e-03  9.3101e-03  2.1327e-03  1.0734e-03  0:01:28 1870
  2550  9.3772e-03  2.8752e-03  1.7021e-03  9.2904e-03  2.1362e-03  1.0665e-03  0:01:10 1869

  iter  continuity  x-velocity  y-velocity      energy           k       omega     time/iter
  2551  9.3521e-03  2.8353e-03  1.6884e-03  9.2632e-03  2.1398e-03  1.0593e-03  0:00:56 1868
  2552  9.3261e-03  2.7975e-03  1.6709e-03  9.2352e-03  2.1425e-03  1.0510e-03  0:06:58 1867
  2553  9.2981e-03  2.7596e-03  1.6521e-03  9.2055e-03  2.1440e-03  1.0415e-03  0:05:34 1866
  2554  9.2649e-03  2.7201e-03  1.6309e-03  9.1705e-03  2.1443e-03  1.0314e-03  0:04:27 1865
  2555  9.2301e-03  2.6819e-03  1.6106e-03  9.1343e-03  2.1440e-03  1.0204e-03  0:03:34 1864
  2556  9.1952e-03  2.6439e-03  1.5921e-03  9.0982e-03  2.1438e-03  1.0123e-03  0:02:51 1863
  2557  9.1619e-03  2.6052e-03  1.5733e-03  9.0642e-03  2.1430e-03  1.0022e-03  0:02:17 1862
  2558  9.1327e-03  2.5685e-03  1.5550e-03  9.0345e-03  2.1402e-03  9.9130e-04  0:01:49 1861
  2559  9.1095e-03  2.5331e-03  1.5344e-03  9.0111e-03  2.1361e-03  9.8154e-04  0:01:27 1860
  2560  9.0974e-03  2.5000e-03  1.5153e-03  8.9994e-03  2.1302e-03  9.7135e-04  0:01:10 1859
  2561  9.0831e-03  2.4689e-03  1.4962e-03  8.9858e-03  2.1232e-03  9.6003e-04  0:07:07 1858

  iter  continuity  x-velocity  y-velocity      energy           k       omega     time/iter
  2562  9.0735e-03  2.4397e-03  1.4709e-03  8.9773e-03  2.1148e-03  9.4930e-04  0:05:42 1857
  2563  9.0765e-03  2.4142e-03  1.4469e-03  8.9818e-03  2.1047e-03  9.3817e-04  0:04:33 1856
  2564  9.0850e-03  2.3882e-03  1.4238e-03  8.9922e-03  2.0931e-03  9.2658e-04  0:03:39 1855
  2565  9.1035e-03  2.3638e-03  1.3997e-03  9.0130e-03  2.0796e-03  9.1544e-04  0:02:55 1854
  2566  9.1291e-03  2.3408e-03  1.3779e-03  9.0413e-03  2.0647e-03  9.0388e-04  0:02:20 1853
  2567  9.1604e-03  2.3187e-03  1.3558e-03  9.0755e-03  2.0485e-03  8.9236e-04  0:01:52 1852
  2568  9.1964e-03  2.2982e-03  1.3343e-03  9.1144e-03  2.0312e-03  8.8102e-04  0:01:29 1851
  2569  9.2309e-03  2.2782e-03  1.3148e-03  9.1518e-03  2.0130e-03  8.7067e-04  0:01:11 1850
  2570  9.2620e-03  2.2583e-03  1.2977e-03  9.1857e-03  1.9944e-03  8.6062e-04  0:07:07 1849
  2571  9.2907e-03  2.2396e-03  1.2824e-03  9.2173e-03  1.9755e-03  8.5036e-04  0:05:41 1848
  2572  9.3137e-03  2.2221e-03  1.2694e-03  9.2430e-03  1.9562e-03  8.3968e-04  0:04:33 1847

  iter  continuity  x-velocity  y-velocity      energy           k       omega     time/iter
  2573  9.3284e-03  2.2046e-03  1.2594e-03  9.2602e-03  1.9364e-03  8.3026e-04  0:03:38 1846
  2574  9.3292e-03  2.1874e-03  1.2518e-03  9.2633e-03  1.9170e-03  8.2135e-04  0:02:54 1845
  2575  9.3179e-03  2.1711e-03  1.2476e-03  9.2541e-03  1.8992e-03  8.1232e-04  0:02:20 1844
  2576  9.2940e-03  2.1556e-03  1.2469e-03  9.2320e-03  1.8837e-03  8.0349e-04  0:01:52 1843
  2577  9.2494e-03  2.1411e-03  1.2497e-03  9.1888e-03  1.8692e-03  7.9506e-04  0:01:29 1842
  2578  9.1826e-03  2.1264e-03  1.2547e-03  9.1232e-03  1.8547e-03  7.8682e-04  0:01:11 1841
  2579  9.0880e-03  2.1110e-03  1.2626e-03  9.0294e-03  1.8407e-03  7.7864e-04  0:00:57 1840
  2580  8.9745e-03  2.0957e-03  1.2729e-03  8.9165e-03  1.8283e-03  7.7058e-04  0:06:53 1839
  2581  8.8441e-03  2.0809e-03  1.2848e-03  8.7864e-03  1.8168e-03  7.6256e-04  0:05:31 1838
  2582  8.6951e-03  2.0664e-03  1.2981e-03  8.6374e-03  1.8056e-03  7.5499e-04  0:04:24 1837
  2583  8.5306e-03  2.0519e-03  1.3131e-03  8.4727e-03  1.7956e-03  7.4773e-04  0:03:31 1836

  iter  continuity  x-velocity  y-velocity      energy           k       omega     time/iter
  2584  8.3532e-03  2.0376e-03  1.3291e-03  8.2949e-03  1.7874e-03  7.4112e-04  0:02:49 1835
  2585  8.1660e-03  2.0232e-03  1.3463e-03  8.1072e-03  1.7798e-03  7.3444e-04  0:02:15 1834
  2586  7.9678e-03  2.0085e-03  1.3640e-03  7.9081e-03  1.7725e-03  7.2774e-04  0:01:48 1833
  2587  7.7603e-03  1.9937e-03  1.3815e-03  7.6994e-03  1.7650e-03  7.1966e-04  0:01:26 1832
  2588  7.5460e-03  1.9797e-03  1.3988e-03  7.4839e-03  1.7580e-03  7.1276e-04  0:01:09 1831
  2589  7.3277e-03  1.9642e-03  1.4142e-03  7.2640e-03  1.7520e-03  7.0714e-04  0:00:55 1830
  2590  7.1101e-03  1.9476e-03  1.4283e-03  7.0447e-03  1.7472e-03  7.0111e-04  0:00:44 1829
  2591  6.8974e-03  1.9309e-03  1.4429e-03  6.8301e-03  1.7430e-03  6.9534e-04  0:06:41 1828
  2592  6.6939e-03  1.9136e-03  1.4563e-03  6.6245e-03  1.7394e-03  6.8962e-04  0:05:21 1827
  2593  6.5049e-03  1.8967e-03  1.4676e-03  6.4332e-03  1.7365e-03  6.8392e-04  0:04:16 1826
  2594  6.3351e-03  1.8801e-03  1.4778e-03  6.2610e-03  1.7352e-03  6.7849e-04  0:03:25 1825

  iter  continuity  x-velocity  y-velocity      energy           k       omega     time/iter
  2595  6.1895e-03  1.8637e-03  1.4864e-03  6.1129e-03  1.7351e-03  6.7319e-04  0:02:44 1824
  2596  6.0707e-03  1.8465e-03  1.4929e-03  5.9915e-03  1.7352e-03  6.6809e-04  0:02:11 1823
  2597  5.9824e-03  1.8290e-03  1.4967e-03  5.9007e-03  1.7358e-03  6.6381e-04  0:01:45 1822
  2598  5.9260e-03  1.8128e-03  1.4982e-03  5.8419e-03  1.7364e-03  6.5904e-04  0:01:24 1821
  2599  5.9035e-03  1.7955e-03  1.4977e-03  5.8171e-03  1.7370e-03  6.5322e-04  0:01:07 1820
  2600  5.9146e-03  1.7768e-03  1.4945e-03  5.8263e-03  1.7378e-03  6.4839e-04  0:00:54 1819
  2601  5.9584e-03  1.7571e-03  1.4883e-03  5.8685e-03  1.7383e-03  6.4384e-04  0:06:46 1818
  2602  6.0344e-03  1.7359e-03  1.4817e-03  5.9431e-03  1.7387e-03  6.3935e-04  0:05:25 1817
  2603  6.1390e-03  1.7151e-03  1.4740e-03  6.0466e-03  1.7388e-03  6.3379e-04  0:04:20 1816
  2604  6.2676e-03  1.6925e-03  1.4639e-03  6.1744e-03  1.7388e-03  6.2893e-04  0:03:28 1815
  2605  6.4159e-03  1.6684e-03  1.4522e-03  6.3221e-03  1.7382e-03  6.2484e-04  0:02:46 1814

  iter  continuity  x-velocity  y-velocity      energy           k       omega     time/iter
  2606  6.5799e-03  1.6447e-03  1.4381e-03  6.4857e-03  1.7379e-03  6.2064e-04  0:02:13 1813
  2607  6.7546e-03  1.6216e-03  1.4217e-03  6.6603e-03  1.7372e-03  6.1642e-04  0:01:46 1812
  2608  6.9350e-03  1.5985e-03  1.4040e-03  6.8407e-03  1.7365e-03  6.1217e-04  0:01:25 1811
  2609  7.1153e-03  1.5754e-03  1.3843e-03  7.0211e-03  1.7356e-03  6.0768e-04  0:01:08 1810
  2610  7.2913e-03  1.5514e-03  1.3627e-03  7.1974e-03  1.7344e-03  6.0320e-04  0:00:54 1809
  2611  7.4593e-03  1.5249e-03  1.3396e-03  7.3657e-03  1.7333e-03  5.9886e-04  0:06:45 1808
  2612  7.6160e-03  1.4996e-03  1.3158e-03  7.5230e-03  1.7317e-03  5.9417e-04  0:05:24 1807
  2613  7.7570e-03  1.4766e-03  1.2913e-03  7.6646e-03  1.7292e-03  5.8986e-04  0:04:19 1806
  2614  7.8781e-03  1.4547e-03  1.2654e-03  7.7866e-03  1.7258e-03  5.8430e-04  0:03:27 1805
  2615  7.9778e-03  1.4341e-03  1.2397e-03  7.8872e-03  1.7214e-03  5.7850e-04  0:02:46 1804
  2616  8.0525e-03  1.4152e-03  1.2147e-03  7.9629e-03  1.7160e-03  5.7382e-04  0:02:12 1803

  iter  continuity  x-velocity  y-velocity      energy           k       omega     time/iter
  2617  8.1018e-03  1.3968e-03  1.1904e-03  8.0134e-03  1.7093e-03  5.6890e-04  0:01:46 1802
  2618  8.1243e-03  1.3781e-03  1.1659e-03  8.0372e-03  1.7024e-03  5.6369e-04  0:01:25 1801
  2619  8.1203e-03  1.3577e-03  1.1432e-03  8.0346e-03  1.6946e-03  5.5816e-04  0:01:08 1800
  2620  8.0918e-03  1.3374e-03  1.1222e-03  8.0075e-03  1.6861e-03  5.5261e-04  0:00:54 1799
  2621  8.0363e-03  1.3178e-03  1.1033e-03  7.9535e-03  1.6768e-03  5.4769e-04  0:06:43 1798
  2622  7.9496e-03  1.2991e-03  1.0862e-03  7.8683e-03  1.6678e-03  5.4217e-04  0:05:22 1797
  2623  7.8250e-03  1.2809e-03  1.0713e-03  7.7453e-03  1.6586e-03  5.3638e-04  0:04:18 1796
  2624  7.6782e-03  1.2657e-03  1.0585e-03  7.6001e-03  1.6491e-03  5.3092e-04  0:03:26 1795
  2625  7.5144e-03  1.2534e-03  1.0474e-03  7.4379e-03  1.6393e-03  5.2588e-04  0:02:45 1794
  2626  7.3360e-03  1.2439e-03  1.0385e-03  7.2612e-03  1.6289e-03  5.2050e-04  0:02:12 1793
  2627  7.1475e-03  1.2365e-03  1.0310e-03  7.0744e-03  1.6182e-03  5.1523e-04  0:01:45 1792

  iter  continuity  x-velocity  y-velocity      energy           k       omega     time/iter
  2628  6.9539e-03  1.2276e-03  1.0250e-03  6.8826e-03  1.6069e-03  5.1054e-04  0:01:24 1791
  2629  6.7589e-03  1.2194e-03  1.0203e-03  6.6896e-03  1.5950e-03  5.0689e-04  0:01:07 1790
  2630  6.5672e-03  1.2103e-03  1.0167e-03  6.4997e-03  1.5827e-03  5.0180e-04  0:00:54 1789
  2631  6.3796e-03  1.2004e-03  1.0141e-03  6.3141e-03  1.5700e-03  4.9744e-04  0:06:41 1788
  2632  6.2016e-03  1.1917e-03  1.0122e-03  6.1382e-03  1.5572e-03  4.9306e-04  0:05:20 1787
  2633  6.0383e-03  1.1852e-03  1.0107e-03  5.9769e-03  1.5443e-03  4.8961e-04  0:04:16 1786
  2634  5.8912e-03  1.1805e-03  1.0098e-03  5.8318e-03  1.5310e-03  4.8649e-04  0:03:25 1785
  2635  5.7592e-03  1.1755e-03  1.0092e-03  5.7018e-03  1.5175e-03  4.8294e-04  0:02:44 1784
  2636  5.6379e-03  1.1705e-03  1.0087e-03  5.5824e-03  1.5041e-03  4.7901e-04  0:02:11 1783
  2637  5.5381e-03  1.1649e-03  1.0083e-03  5.4844e-03  1.4908e-03  4.7629e-04  0:01:45 1782
  2638  5.4569e-03  1.1615e-03  1.0081e-03  5.4049e-03  1.4774e-03  4.7353e-04  0:01:24 1781

  iter  continuity  x-velocity  y-velocity      energy           k       omega     time/iter
  2639  5.3904e-03  1.1634e-03  1.0079e-03  5.3398e-03  1.4643e-03  4.7070e-04  0:01:07 1780
  2640  5.3346e-03  1.1653e-03  1.0073e-03  5.2852e-03  1.4517e-03  4.6704e-04  0:00:53 1779
  2641  5.2875e-03  1.1670e-03  1.0065e-03  5.2390e-03  1.4392e-03  4.6398e-04  0:06:38 1778
  2642  5.2443e-03  1.1669e-03  1.0052e-03  5.1966e-03  1.4268e-03  4.6162e-04  0:05:19 1777
  2643  5.2030e-03  1.1632e-03  1.0037e-03  5.1557e-03  1.4146e-03  4.5900e-04  0:04:15 1776
  2644  5.1611e-03  1.1583e-03  1.0017e-03  5.1140e-03  1.4025e-03  4.5649e-04  0:03:24 1775
  2645  5.1167e-03  1.1539e-03  9.9920e-04  5.0695e-03  1.3903e-03  4.5461e-04  0:02:43 1774
  2646  5.0688e-03  1.1497e-03  9.9626e-04  5.0214e-03  1.3783e-03  4.5294e-04  0:02:10 1773
  2647  5.0132e-03  1.1410e-03  9.9228e-04  4.9653e-03  1.3668e-03  4.5157e-04  0:01:44 1772
  2648  4.9470e-03  1.1341e-03  9.8727e-04  4.8984e-03  1.3560e-03  4.5017e-04  0:07:17 1771
  2649  4.8685e-03  1.1277e-03  9.8093e-04  4.8192e-03  1.3459e-03  4.4868e-04  0:05:50 1770

  iter  continuity  x-velocity  y-velocity      energy           k       omega     time/iter
  2650  4.7792e-03  1.1240e-03  9.7377e-04  4.7291e-03  1.3365e-03  4.4739e-04  0:04:40 1769
  2651  4.6809e-03  1.1238e-03  9.6564e-04  4.6298e-03  1.3275e-03  4.4663e-04  0:03:44 1768
  2652  4.5727e-03  1.1247e-03  9.5681e-04  4.5206e-03  1.3189e-03  4.4591e-04  0:02:59 1767
  2653  4.4557e-03  1.1254e-03  9.4941e-04  4.4025e-03  1.3107e-03  4.4526e-04  0:02:23 1766
  2654  4.3302e-03  1.1213e-03  9.4027e-04  4.2760e-03  1.3023e-03  4.4495e-04  0:01:54 1765
  2655  4.1979e-03  1.1148e-03  9.2846e-04  4.1424e-03  1.2937e-03  4.4448e-04  0:01:31 1764
  2656  4.0624e-03  1.1087e-03  9.1531e-04  4.0058e-03  1.2855e-03  4.4402e-04  0:01:13 1763
  2657  3.9271e-03  1.1046e-03  9.0132e-04  3.8693e-03  1.2772e-03  4.4370e-04  0:00:58 1762
  2658  3.7957e-03  1.1031e-03  8.8657e-04  3.7366e-03  1.2689e-03  4.4326e-04  0:06:39 1761
  2659  3.6716e-03  1.1015e-03  8.7125e-04  3.6114e-03  1.2611e-03  4.4268e-04  0:05:19 1760
  2660  3.5580e-03  1.1005e-03  8.5540e-04  3.4967e-03  1.2531e-03  4.4207e-04  0:04:15 1759

  iter  continuity  x-velocity  y-velocity      energy           k       omega     time/iter
  2661  3.4589e-03  1.1013e-03  8.3869e-04  3.3967e-03  1.2450e-03  4.4133e-04  0:03:24 1758
  2662  3.3779e-03  1.1016e-03  8.2159e-04  3.3149e-03  1.2371e-03  4.4048e-04  0:02:43 1757
  2663  3.3171e-03  1.0965e-03  8.0436e-04  3.2536e-03  1.2296e-03  4.3972e-04  0:02:10 1756
  2664  3.2774e-03  1.0925e-03  7.8706e-04  3.2136e-03  1.2230e-03  4.3890e-04  0:01:44 1755
  2665  3.2610e-03  1.0881e-03  7.6962e-04  3.1971e-03  1.2171e-03  4.3769e-04  0:01:23 1754
  2666  3.2679e-03  1.0851e-03  7.5221e-04  3.2043e-03  1.2126e-03  4.3607e-04  0:01:07 1753
  2667  3.2961e-03  1.0837e-03  7.3486e-04  3.2330e-03  1.2084e-03  4.3585e-04  0:00:53 1752
  2668  3.3433e-03  1.0850e-03  7.1782e-04  3.2808e-03  1.2053e-03  4.3505e-04  0:06:33 1751
  2669  3.4056e-03  1.0854e-03  7.0196e-04  3.3439e-03  1.2026e-03  4.3399e-04  0:05:14 1750
  2670  3.4792e-03  1.0851e-03  6.8788e-04  3.4183e-03  1.2010e-03  4.3305e-04  0:04:11 1749
  2671  3.5599e-03  1.0876e-03  6.7307e-04  3.4999e-03  1.1993e-03  4.3114e-04  0:03:21 1748

  iter  continuity  x-velocity  y-velocity      energy           k       omega     time/iter
  2672  3.6450e-03  1.0898e-03  6.5894e-04  3.5859e-03  1.1981e-03  4.2963e-04  0:02:41 1747
  2673  3.7302e-03  1.0854e-03  6.4546e-04  3.6719e-03  1.1969e-03  4.2854e-04  0:02:08 1746
  2674  3.8124e-03  1.0757e-03  6.3242e-04  3.7550e-03  1.1960e-03  4.2714e-04  0:01:43 1745
  2675  3.8908e-03  1.0671e-03  6.2007e-04  3.8343e-03  1.1950e-03  4.2561e-04  0:01:22 1744
  2676  3.9635e-03  1.0622e-03  6.0874e-04  3.9078e-03  1.1944e-03  4.2423e-04  0:01:06 1743
  2677  4.0277e-03  1.0618e-03  5.9874e-04  3.9728e-03  1.1943e-03  4.2301e-04  0:00:52 1742
  2678  4.0826e-03  1.0630e-03  5.9007e-04  4.0284e-03  1.1945e-03  4.2186e-04  0:00:42 1741
  2679  4.1277e-03  1.0629e-03  5.8231e-04  4.0744e-03  1.1954e-03  4.2077e-04  0:06:22 1740
  2680  4.1621e-03  1.0665e-03  5.7536e-04  4.1094e-03  1.1968e-03  4.1989e-04  0:05:05 1739
  2681  4.1861e-03  1.0789e-03  5.6925e-04  4.1342e-03  1.1987e-03  4.1925e-04  0:04:04 1738
  2682  4.1996e-03  1.0926e-03  5.6369e-04  4.1485e-03  1.2011e-03  4.1886e-04  0:03:15 1737

  iter  continuity  x-velocity  y-velocity      energy           k       omega     time/iter
  2683  4.2016e-03  1.0886e-03  5.5899e-04  4.1513e-03  1.2038e-03  4.1853e-04  0:02:36 1736
  2684  4.1938e-03  1.0797e-03  5.5483e-04  4.1442e-03  1.2067e-03  4.1818e-04  0:02:05 1735
  2685  4.1770e-03  1.0710e-03  5.5126e-04  4.1282e-03  1.2092e-03  4.1799e-04  0:01:40 1734
  2686  4.1525e-03  1.0615e-03  5.4813e-04  4.1045e-03  1.2120e-03  4.1778e-04  0:01:20 1733
  2687  4.1215e-03  1.0536e-03  5.4545e-04  4.0742e-03  1.2150e-03  4.1750e-04  0:01:04 1732
  2688  4.0854e-03  1.0474e-03  5.4326e-04  4.0388e-03  1.2181e-03  4.1696e-04  0:00:51 1731
  2689  4.0453e-03  1.0417e-03  5.4113e-04  3.9994e-03  1.2210e-03  4.1625e-04  0:06:27 1730
  2690  4.0029e-03  1.0353e-03  5.3869e-04  3.9576e-03  1.2235e-03  4.1570e-04  0:05:09 1729
  2691  3.9596e-03  1.0290e-03  5.3604e-04  3.9149e-03  1.2262e-03  4.1527e-04  0:04:07 1728
  2692  3.9165e-03  1.0235e-03  5.3331e-04  3.8723e-03  1.2287e-03  4.1480e-04  0:03:18 1727
  2693  3.8750e-03  1.0186e-03  5.3055e-04  3.8313e-03  1.2311e-03  4.1408e-04  0:02:38 1726

  iter  continuity  x-velocity  y-velocity      energy           k       omega     time/iter
  2694  3.8365e-03  1.0127e-03  5.2790e-04  3.7933e-03  1.2333e-03  4.1307e-04  0:02:06 1725
  2695  3.8023e-03  1.0081e-03  5.2508e-04  3.7594e-03  1.2353e-03  4.1180e-04  0:01:41 1724
  2696  3.7730e-03  1.0032e-03  5.2184e-04  3.7305e-03  1.2371e-03  4.1136e-04  0:01:21 1723
  2697  3.7500e-03  9.9781e-04  5.1846e-04  3.7077e-03  1.2389e-03  4.1064e-04  0:01:05 1722
  2698  3.7338e-03  9.9263e-04  5.1502e-04  3.6918e-03  1.2406e-03  4.0975e-04  0:00:52 1721
  2699  3.7250e-03  9.8813e-04  5.1130e-04  3.6832e-03  1.2423e-03  4.0879e-04  0:06:25 1720
  2700  3.7238e-03  9.8298e-04  5.0778e-04  3.6821e-03  1.2437e-03  4.0808e-04  0:05:08 1719
  2701  3.7298e-03  9.7765e-04  5.0378e-04  3.6882e-03  1.2449e-03  4.0735e-04  0:04:06 1718
  2702  3.7430e-03  9.7200e-04  4.9954e-04  3.7014e-03  1.2463e-03  4.0657e-04  0:03:17 1717
  2703  3.7631e-03  9.6726e-04  4.9510e-04  3.7215e-03  1.2478e-03  4.0533e-04  0:02:37 1716
  2704  3.7894e-03  9.6201e-04  4.9035e-04  3.7479e-03  1.2493e-03  4.0422e-04  0:02:06 1715

  iter  continuity  x-velocity  y-velocity      energy           k       omega     time/iter
  2705  3.8211e-03  9.5875e-04  4.8554e-04  3.7795e-03  1.2505e-03  4.0340e-04  0:01:41 1714
  2706  3.8571e-03  9.5503e-04  4.8067e-04  3.8155e-03  1.2518e-03  4.0224e-04  0:01:20 1713
  2707  3.8962e-03  9.4907e-04  4.7534e-04  3.8546e-03  1.2527e-03  4.0098e-04  0:01:04 1712
  2708  3.9371e-03  9.4306e-04  4.6988e-04  3.8954e-03  1.2534e-03  3.9969e-04  0:00:51 1711
  2709  3.9782e-03  9.3536e-04  4.6407e-04  3.9366e-03  1.2536e-03  3.9832e-04  0:06:23 1710
  2710  4.0179e-03  9.2662e-04  4.5828e-04  3.9762e-03  1.2536e-03  3.9675e-04  0:05:06 1709
  2711  4.0555e-03  9.1835e-04  4.5249e-04  4.0138e-03  1.2532e-03  3.9507e-04  0:04:05 1708
  2712  4.0893e-03  9.1066e-04  4.4681e-04  4.0476e-03  1.2526e-03  3.9310e-04  0:03:16 1707
  2713  4.1181e-03  9.0336e-04  4.4123e-04  4.0764e-03  1.2515e-03  3.9071e-04  0:02:37 1706
  2714  4.1410e-03  8.9727e-04  4.3574e-04  4.0992e-03  1.2501e-03  3.8833e-04  0:02:05 1705
  2715  4.1564e-03  8.9109e-04  4.3034e-04  4.1147e-03  1.2483e-03  3.8563e-04  0:01:40 1704

  iter  continuity  x-velocity  y-velocity      energy           k       omega     time/iter
  2716  4.1636e-03  8.8520e-04  4.2518e-04  4.1219e-03  1.2462e-03  3.8274e-04  0:01:20 1703
  2717  4.1616e-03  8.7958e-04  4.2045e-04  4.1200e-03  1.2440e-03  3.7988e-04  0:01:04 1702
  2718  4.1496e-03  8.7545e-04  4.1635e-04  4.1081e-03  1.2413e-03  3.7711e-04  0:00:51 1701
  2719  4.1272e-03  8.7283e-04  4.1267e-04  4.0857e-03  1.2382e-03  3.7414e-04  0:06:21 1700
  2720  4.0942e-03  8.7288e-04  4.0924e-04  4.0528e-03  1.2344e-03  3.7117e-04  0:05:05 1699
  2721  4.0504e-03  8.7475e-04  4.0669e-04  4.0090e-03  1.2301e-03  3.6827e-04  0:04:03 1698
  2722  3.9952e-03  8.7549e-04  4.0489e-04  3.9538e-03  1.2253e-03  3.6537e-04  0:03:15 1697
  2723  3.9290e-03  8.7717e-04  4.0337e-04  3.8876e-03  1.2199e-03  3.6243e-04  0:02:36 1696
  2724  3.8522e-03  8.7835e-04  4.0278e-04  3.8108e-03  1.2141e-03  3.5972e-04  0:02:04 1695
  2725  3.7654e-03  8.7902e-04  4.0278e-04  3.7239e-03  1.2078e-03  3.5725e-04  0:01:39 1694
  2726  3.6693e-03  8.7653e-04  4.0295e-04  3.6278e-03  1.2011e-03  3.5496e-04  0:01:20 1693

  iter  continuity  x-velocity  y-velocity      energy           k       omega     time/iter
  2727  3.5658e-03  8.7342e-04  4.0319e-04  3.5242e-03  1.1939e-03  3.5299e-04  0:01:04 1692
  2728  3.4563e-03  8.6947e-04  4.0370e-04  3.4145e-03  1.1864e-03  3.5108e-04  0:00:51 1691
  2729  3.3426e-03  8.6688e-04  4.0438e-04  3.3004e-03  1.1786e-03  3.4936e-04  0:00:41 1690
  2730  3.2261e-03  8.6431e-04  4.0490e-04  3.1836e-03  1.1706e-03  3.4769e-04  0:06:10 1689
  2731  3.1090e-03  8.6524e-04  4.0565e-04  3.0661e-03  1.1623e-03  3.4640e-04  0:04:56 1688
  2732  2.9932e-03  8.6814e-04  4.0642e-04  2.9498e-03  1.1538e-03  3.4532e-04  0:03:57 1687
  2733  2.8811e-03  8.7120e-04  4.0694e-04  2.8371e-03  1.1452e-03  3.4437e-04  0:03:09 1686
  2734  2.7752e-03  8.7913e-04  4.0714e-04  2.7304e-03  1.1363e-03  3.4355e-04  0:02:31 1685
  2735  2.6775e-03  8.8703e-04  4.0657e-04  2.6318e-03  1.1274e-03  3.4285e-04  0:02:01 1684
  2736  2.5888e-03  8.9152e-04  4.0599e-04  2.5422e-03  1.1183e-03  3.4220e-04  0:01:37 1683
  2737  2.5106e-03  8.9118e-04  4.0580e-04  2.4631e-03  1.1090e-03  3.4161e-04  0:01:17 1682

  iter  continuity  x-velocity  y-velocity      energy           k       omega     time/iter
  2738  2.4448e-03  8.9376e-04  4.0450e-04  2.3964e-03  1.0993e-03  3.4114e-04  0:01:02 1681
  2739  2.3907e-03  8.8848e-04  4.0133e-04  2.3418e-03  1.0893e-03  3.4080e-04  0:00:49 1680
  2740  2.3514e-03  8.8123e-04  3.9883e-04  2.3023e-03  1.0791e-03  3.4084e-04  0:06:15 1679
  2741  2.3260e-03  8.8497e-04  3.9563e-04  2.2766e-03  1.0685e-03  3.4078e-04  0:05:00 1678
  2742  2.3129e-03  8.8997e-04  3.9243e-04  2.2634e-03  1.0579e-03  3.4074e-04  0:04:00 1677
  2743  2.3116e-03  8.9354e-04  3.8935e-04  2.2619e-03  1.0471e-03  3.4085e-04  0:03:12 1676
  2744  2.3211e-03  9.0246e-04  3.8715e-04  2.2712e-03  1.0360e-03  3.4118e-04  0:02:33 1675
  2745  2.3383e-03  9.1250e-04  3.8555e-04  2.2882e-03  1.0249e-03  3.4148e-04  0:02:03 1674
  2746  2.3606e-03  9.2407e-04  3.8432e-04  2.3104e-03  1.0136e-03  3.4184e-04  0:01:38 1673
  2747  2.3869e-03  9.3795e-04  3.8266e-04  2.3366e-03  1.0021e-03  3.4239e-04  0:01:18 1672
  2748  2.4144e-03  9.4758e-04  3.8070e-04  2.3640e-03  9.9020e-04  3.4277e-04  0:01:03 1671

  iter  continuity  x-velocity  y-velocity      energy           k       omega     time/iter
  2749  2.4419e-03  9.4954e-04  3.7814e-04  2.3914e-03  9.7806e-04  3.4302e-04  0:00:50 1670
  2750  2.4688e-03  9.4781e-04  3.7522e-04  2.4179e-03  9.6565e-04  3.4377e-04  0:06:14 1669
  2751  2.4947e-03  9.4634e-04  3.7287e-04  2.4432e-03  9.5312e-04  3.4416e-04  0:04:59 1668
  2752  2.5181e-03  9.4216e-04  3.7185e-04  2.4658e-03  9.4037e-04  3.4462e-04  0:03:59 1667
  2753  2.5396e-03  9.4620e-04  3.7077e-04  2.4863e-03  9.2748e-04  3.4505e-04  0:03:11 1666
  2754  2.5595e-03  9.5676e-04  3.7008e-04  2.5051e-03  9.1442e-04  3.4579e-04  0:02:33 1665
  2755  2.5761e-03  9.6901e-04  3.6980e-04  2.5204e-03  9.0122e-04  3.4656e-04  0:02:02 1664
  2756  2.5895e-03  9.8226e-04  3.7002e-04  2.5325e-03  8.8790e-04  3.4753e-04  0:01:38 1663
  2757  2.5989e-03  9.8326e-04  3.7117e-04  2.5410e-03  8.7452e-04  3.4832e-04  0:01:18 1662
  2758  2.6075e-03  9.8530e-04  3.7248e-04  2.5483e-03  8.6109e-04  3.4925e-04  0:01:02 1661
  2759  2.6163e-03  9.9510e-04  3.7324e-04  2.5559e-03  8.4769e-04  3.4994e-04  0:00:50 1660

  iter  continuity  x-velocity  y-velocity      energy           k       omega     time/iter
  2760  2.6250e-03  9.9844e-04  3.7440e-04  2.5632e-03  8.3437e-04  3.5067e-04  0:00:40 1659
  2761  2.6347e-03  1.0081e-03  3.7420e-04  2.5716e-03  8.2110e-04  3.5149e-04  0:06:04 1658
  2762  2.6454e-03  1.0244e-03  3.7482e-04  2.5808e-03  8.0815e-04  3.5239e-04  0:04:51 1657
  2763  2.6581e-03  1.0311e-03  3.7725e-04  2.5922e-03  7.9560e-04  3.5320e-04  0:03:52 1656
  2764  2.6760e-03  1.0510e-03  3.7773e-04  2.6088e-03  7.8390e-04  3.5374e-04  0:03:06 1655
  2765  2.6985e-03  1.0712e-03  3.7760e-04  2.6296e-03  7.7306e-04  3.5416e-04  0:02:29 1654
  2766  2.7242e-03  1.0831e-03  3.7929e-04  2.6539e-03  7.6331e-04  3.5472e-04  0:01:59 1653
  2767  2.7545e-03  1.0760e-03  3.7997e-04  2.6823e-03  7.5409e-04  3.5534e-04  0:01:35 1652
  2768  2.7900e-03  1.0964e-03  3.7952e-04  2.7161e-03  7.4563e-04  3.5572e-04  0:01:16 1651
  2769  2.8254e-03  1.0779e-03  3.7680e-04  2.7506e-03  7.3785e-04  3.5593e-04  0:01:01 1650
  2770  2.8656e-03  1.0455e-03  3.7386e-04  2.7904e-03  7.3077e-04  3.5597e-04  0:00:49 1649

  iter  continuity  x-velocity  y-velocity      energy           k       omega     time/iter
  2771  2.9126e-03  1.0321e-03  3.7102e-04  2.8369e-03  7.2420e-04  3.5599e-04  0:06:08 1648
  2772  2.9641e-03  1.0223e-03  3.6951e-04  2.8877e-03  7.1813e-04  3.5586e-04  0:04:55 1647
  2773  3.0194e-03  1.0172e-03  3.6839e-04  2.9423e-03  7.1246e-04  3.5567e-04  0:03:55 1646
  2774  3.0785e-03  1.0136e-03  3.6454e-04  3.0006e-03  7.0724e-04  3.5509e-04  0:03:08 1645
  2775  3.1403e-03  1.0142e-03  3.5900e-04  3.0613e-03  7.0258e-04  3.5419e-04  0:02:31 1644
  2776  3.2040e-03  1.0197e-03  3.5522e-04  3.1241e-03  6.9829e-04  3.5368e-04  0:02:00 1643
  2777  3.2689e-03  1.0279e-03  3.5340e-04  3.1879e-03  6.9439e-04  3.5311e-04  0:01:36 1642
  2778  3.3336e-03  1.0374e-03  3.5272e-04  3.2516e-03  6.9091e-04  3.5211e-04  0:01:17 1641
  2779  3.3960e-03  1.0450e-03  3.5224e-04  3.3133e-03  6.8782e-04  3.5089e-04  0:06:30 1640
  2780  3.4583e-03  1.0545e-03  3.4959e-04  3.3747e-03  6.8509e-04  3.4996e-04  0:05:11 1639
  2781  3.5185e-03  1.0707e-03  3.4927e-04  3.4342e-03  6.8279e-04  3.4901e-04  0:04:09 1638

  iter  continuity  x-velocity  y-velocity      energy           k       omega     time/iter
  2782  3.5754e-03  1.0738e-03  3.4998e-04  3.4900e-03  6.8089e-04  3.4792e-04  0:03:19 1637
  2783  3.6285e-03  1.0787e-03  3.4832e-04  3.5421e-03  6.7928e-04  3.4675e-04  0:02:39 1636
  2784  3.6785e-03  1.0952e-03  3.4335e-04  3.5911e-03  6.7809e-04  3.4565e-04  0:02:07 1635
  2785  3.7244e-03  1.1074e-03  3.4212e-04  3.6361e-03  6.7730e-04  3.4455e-04  0:01:42 1634
  2786  3.7620e-03  1.0888e-03  3.4291e-04  3.6731e-03  6.7686e-04  3.4351e-04  0:01:21 1633
  2787  3.7987e-03  1.0909e-03  3.4572e-04  3.7093e-03  6.7677e-04  3.4250e-04  0:01:05 1632
  2788  3.8326e-03  1.1069e-03  3.4902e-04  3.7423e-03  6.7701e-04  3.4156e-04  0:06:18 1631
  2789  3.8624e-03  1.1300e-03  3.5027e-04  3.7707e-03  6.7755e-04  3.4051e-04  0:05:02 1630
  2790  3.8870e-03  1.1239e-03  3.5092e-04  3.7944e-03  6.7830e-04  3.3940e-04  0:04:02 1629
  2791  3.9101e-03  1.1401e-03  3.5257e-04  3.8160e-03  6.7932e-04  3.3821e-04  0:03:13 1628
  2792  3.9278e-03  1.1325e-03  3.5426e-04  3.8319e-03  6.8054e-04  3.3694e-04  0:02:35 1627

  iter  continuity  x-velocity  y-velocity      energy           k       omega     time/iter
  2793  3.9411e-03  1.1492e-03  3.5634e-04  3.8441e-03  6.8199e-04  3.3547e-04  0:02:04 1626
  2794  3.9429e-03  1.0726e-03  3.5282e-04  3.8453e-03  6.8358e-04  3.3386e-04  0:01:39 1625
  2795  3.9459e-03  1.0365e-03  3.5224e-04  3.8475e-03  6.8543e-04  3.3230e-04  0:01:19 1624
  2796  3.9470e-03  1.0159e-03  3.5265e-04  3.8476e-03  6.8729e-04  3.3087e-04  0:01:03 1623
  2797  3.9462e-03  1.0043e-03  3.5122e-04  3.8456e-03  6.8930e-04  3.2933e-04  0:00:50 1622
  2798  3.9432e-03  1.0037e-03  3.5259e-04  3.8414e-03  6.9131e-04  3.2780e-04  0:06:05 1621
  2799  3.9387e-03  1.0148e-03  3.5453e-04  3.8358e-03  6.9332e-04  3.2616e-04  0:04:51 1620
  2800  3.9318e-03  1.0102e-03  3.5601e-04  3.8277e-03  6.9521e-04  3.2445e-04  0:03:53 1619
  2801  3.9235e-03  9.9011e-04  3.5491e-04  3.8178e-03  6.9733e-04  3.2278e-04  0:03:06 1618
  2802  3.9154e-03  9.8917e-04  3.5569e-04  3.8083e-03  6.9934e-04  3.2124e-04  0:02:29 1617
  2803  3.9053e-03  9.8922e-04  3.5867e-04  3.7972e-03  7.0137e-04  3.1964e-04  0:01:59 1616

  iter  continuity  x-velocity  y-velocity      energy           k       omega     time/iter
  2804  3.8955e-03  9.7852e-04  3.6116e-04  3.7863e-03  7.0324e-04  3.1810e-04  0:01:35 1615
  2805  3.8859e-03  9.7469e-04  3.6376e-04  3.7756e-03  7.0512e-04  3.1679e-04  0:01:16 1614
  2806  3.8772e-03  9.8328e-04  3.6583e-04  3.7658e-03  7.0699e-04  3.1534e-04  0:01:01 1613
  2807  3.8689e-03  1.0021e-03  3.6765e-04  3.7566e-03  7.0882e-04  3.1389e-04  0:00:49 1612
  2808  3.8584e-03  1.0062e-03  3.6906e-04  3.7461e-03  7.1064e-04  3.1253e-04  0:06:01 1611
  2809  3.8513e-03  1.0289e-03  3.7180e-04  3.7388e-03  7.1241e-04  3.1110e-04  0:04:49 1610
  2810  3.8456e-03  1.0383e-03  3.7584e-04  3.7323e-03  7.1419e-04  3.0983e-04  0:03:51 1609
  2811  3.8404e-03  1.0343e-03  3.7802e-04  3.7265e-03  7.1600e-04  3.0864e-04  0:03:05 1608
  2812  3.8386e-03  1.0605e-03  3.8119e-04  3.7239e-03  7.1776e-04  3.0736e-04  0:02:28 1607
  2813  3.8359e-03  1.0605e-03  3.8729e-04  3.7210e-03  7.1942e-04  3.0644e-04  0:01:58 1606
  2814  3.8378e-03  1.0881e-03  3.9633e-04  3.7218e-03  7.2106e-04  3.0574e-04  0:01:34 1605

  iter  continuity  x-velocity  y-velocity      energy           k       omega     time/iter
  2815  3.8408e-03  1.1127e-03  4.0214e-04  3.7241e-03  7.2259e-04  3.0502e-04  0:01:15 1604
  2816  3.8342e-03  1.0614e-03  3.9964e-04  3.7183e-03  7.2405e-04  3.0429e-04  0:01:00 1603
  2817  3.8311e-03  9.9441e-04  3.9759e-04  3.7159e-03  7.2525e-04  3.0351e-04  0:00:48 1602
  2818  3.8303e-03  9.7016e-04  3.9672e-04  3.7159e-03  7.2635e-04  3.0286e-04  0:00:39 1601
  2819  3.8307e-03  9.5817e-04  3.9473e-04  3.7173e-03  7.2725e-04  3.0237e-04  0:05:51 1600
  2820  3.8338e-03  9.6507e-04  3.9372e-04  3.7209e-03  7.2808e-04  3.0191e-04  0:04:40 1599
  2821  3.8368e-03  9.3568e-04  3.9447e-04  3.7242e-03  7.2883e-04  3.0122e-04  0:03:44 1598
  2822  3.8405e-03  9.2471e-04  3.9528e-04  3.7284e-03  7.2936e-04  3.0077e-04  0:02:59 1597
  2823  3.8440e-03  9.2756e-04  3.9681e-04  3.7323e-03  7.2976e-04  3.0058e-04  0:02:23 1596
  2824  3.8483e-03  9.4231e-04  3.9553e-04  3.7371e-03  7.2997e-04  3.0036e-04  0:01:55 1595
  2825  3.8541e-03  9.7005e-04  3.9415e-04  3.7431e-03  7.3006e-04  3.0004e-04  0:01:32 1594

  iter  continuity  x-velocity  y-velocity      energy           k       omega     time/iter
  2826  3.8574e-03  9.6704e-04  3.9460e-04  3.7468e-03  7.3004e-04  2.9948e-04  0:01:13 1593
  2827  3.8593e-03  9.6568e-04  3.9691e-04  3.7492e-03  7.3001e-04  2.9895e-04  0:00:59 1592
  2828  3.8588e-03  9.5826e-04  3.9689e-04  3.7493e-03  7.2999e-04  2.9854e-04  0:00:47 1591
  2829  3.8623e-03  1.0168e-03  3.9753e-04  3.7533e-03  7.2999e-04  2.9813e-04  0:05:55 1590
  2830  3.8579e-03  1.0268e-03  3.9797e-04  3.7501e-03  7.2996e-04  2.9763e-04  0:04:44 1589
  2831  3.8552e-03  1.0155e-03  3.9786e-04  3.7483e-03  7.3004e-04  2.9724e-04  0:03:47 1588
  2832  3.8514e-03  1.0234e-03  3.9760e-04  3.7452e-03  7.3029e-04  2.9710e-04  0:03:02 1587
  2833  3.8460e-03  1.0370e-03  3.9997e-04  3.7408e-03  7.3074e-04  2.9694e-04  0:02:25 1586
  2834  3.8431e-03  1.0774e-03  4.0306e-04  3.7386e-03  7.3129e-04  2.9683e-04  0:01:56 1585
  2835  3.8395e-03  1.0947e-03  4.0897e-04  3.7352e-03  7.3190e-04  2.9673e-04  0:01:33 1584
  2836  3.8336e-03  1.0969e-03  4.1429e-04  3.7300e-03  7.3252e-04  2.9675e-04  0:01:14 1583

  iter  continuity  x-velocity  y-velocity      energy           k       omega     time/iter
  2837  3.8274e-03  1.0991e-03  4.1667e-04  3.7243e-03  7.3305e-04  2.9684e-04  0:00:59 1582
  2838  3.8183e-03  1.0932e-03  4.1160e-04  3.7159e-03  7.3355e-04  2.9696e-04  0:00:47 1581
  2839  3.8035e-03  1.0647e-03  4.0871e-04  3.7023e-03  7.3404e-04  2.9709e-04  0:05:54 1580
  2840  3.7865e-03  9.9275e-04  4.0393e-04  3.6866e-03  7.3439e-04  2.9713e-04  0:04:43 1579
  2841  3.7722e-03  9.6633e-04  3.9956e-04  3.6736e-03  7.3481e-04  2.9695e-04  0:03:46 1578
  2842  3.7573e-03  9.4583e-04  3.9679e-04  3.6599e-03  7.3530e-04  2.9693e-04  0:03:01 1577
  2843  3.7428e-03  9.4034e-04  3.9400e-04  3.6463e-03  7.3560e-04  2.9692e-04  0:02:25 1576
  2844  3.7259e-03  8.9599e-04  3.9016e-04  3.6299e-03  7.3581e-04  2.9694e-04  0:01:56 1575
  2845  3.7073e-03  8.8334e-04  3.8755e-04  3.6119e-03  7.3573e-04  2.9687e-04  0:01:32 1574
  2846  3.6871e-03  8.8891e-04  3.8351e-04  3.5922e-03  7.3555e-04  2.9664e-04  0:01:14 1573
  2847  3.6663e-03  8.8792e-04  3.7578e-04  3.5717e-03  7.3497e-04  2.9613e-04  0:00:59 1572

  iter  continuity  x-velocity  y-velocity      energy           k       omega     time/iter
  2848  3.6429e-03  8.8212e-04  3.7573e-04  3.5486e-03  7.3412e-04  2.9541e-04  0:00:47 1571
  2849  3.6169e-03  8.7668e-04  3.7686e-04  3.5233e-03  7.3291e-04  2.9443e-04  0:05:52 1570
  2850  3.5885e-03  8.6979e-04  3.7446e-04  3.4952e-03  7.3136e-04  2.9332e-04  0:04:41 1569
  2851  3.5580e-03  8.7420e-04  3.7040e-04  3.4649e-03  7.2955e-04  2.9185e-04  0:03:45 1568
  2852  3.5265e-03  8.9165e-04  3.6532e-04  3.4334e-03  7.2766e-04  2.9045e-04  0:03:00 1567
  2853  3.4901e-03  9.0038e-04  3.5792e-04  3.3973e-03  7.2567e-04  2.8927e-04  0:02:24 1566
  2854  3.4517e-03  8.8454e-04  3.5868e-04  3.3593e-03  7.2359e-04  2.8824e-04  0:01:55 1565
  2855  3.4134e-03  8.8275e-04  3.6059e-04  3.3212e-03  7.2160e-04  2.8718e-04  0:01:32 1564
  2856  3.3749e-03  9.1196e-04  3.5831e-04  3.2830e-03  7.1954e-04  2.8601e-04  0:01:13 1563
  2857  3.3346e-03  9.5056e-04  3.5550e-04  3.2434e-03  7.1725e-04  2.8466e-04  0:00:59 1562
  2858  3.2905e-03  9.3752e-04  3.5653e-04  3.2003e-03  7.1497e-04  2.8308e-04  0:00:47 1561

  iter  continuity  x-velocity  y-velocity      energy           k       omega     time/iter
  2859  3.2551e-03  9.6562e-04  3.5930e-04  3.1646e-03  7.1249e-04  2.8111e-04  0:05:50 1560
  2860  3.2163e-03  9.7407e-04  3.5706e-04  3.1261e-03  7.0993e-04  2.7943e-04  0:04:39 1559
  2861  3.1787e-03  9.8568e-04  3.5824e-04  3.0884e-03  7.0711e-04  2.7802e-04  0:03:43 1558
  2862  3.1400e-03  9.6942e-04  3.5717e-04  3.0494e-03  7.0408e-04  2.7671e-04  0:02:59 1557
  2863  3.1081e-03  9.9764e-04  3.5988e-04  3.0170e-03  7.0086e-04  2.7533e-04  0:02:23 1556
  2864  3.0679e-03  9.8467e-04  3.5801e-04  2.9775e-03  6.9769e-04  2.7412e-04  0:01:54 1555
  2865  3.0266e-03  9.1810e-04  3.5497e-04  2.9375e-03  6.9439e-04  2.7285e-04  0:01:31 1554
  2866  2.9899e-03  9.0397e-04  3.5312e-04  2.9019e-03  6.9108e-04  2.7153e-04  0:01:13 1553
  2867  2.9554e-03  9.0664e-04  3.5081e-04  2.8680e-03  6.8776e-04  2.7016e-04  0:00:58 1552
  2868  2.9227e-03  8.9897e-04  3.4152e-04  2.8352e-03  6.8428e-04  2.6871e-04  0:05:57 1551
  2869  2.8937e-03  9.0345e-04  3.3626e-04  2.8055e-03  6.8063e-04  2.6731e-04  0:04:45 1550

  iter  continuity  x-velocity  y-velocity      energy           k       omega     time/iter
  2870  2.8639e-03  9.0853e-04  3.3388e-04  2.7761e-03  6.7697e-04  2.6592e-04  0:03:48 1549
  2871  2.8364e-03  9.3999e-04  3.3316e-04  2.7491e-03  6.7330e-04  2.6456e-04  0:03:02 1548
  2872  2.8092e-03  9.3641e-04  3.3697e-04  2.7214e-03  6.6957e-04  2.6317e-04  0:02:26 1547
  2873  2.7812e-03  9.3283e-04  3.3982e-04  2.6932e-03  6.6592e-04  2.6177e-04  0:01:57 1546
  2874  2.7586e-03  9.4682e-04  3.3757e-04  2.6705e-03  6.6236e-04  2.6067e-04  0:01:33 1545
  2875  2.7334e-03  9.5200e-04  3.3325e-04  2.6459e-03  6.5868e-04  2.5959e-04  0:01:14 1544
  2876  2.7116e-03  9.3390e-04  3.2976e-04  2.6241e-03  6.5472e-04  2.5857e-04  0:01:00 1543
  2877  2.6886e-03  9.2457e-04  3.2511e-04  2.6014e-03  6.5052e-04  2.5740e-04  0:00:48 1542
  2878  2.6686e-03  9.2516e-04  3.2298e-04  2.5820e-03  6.4610e-04  2.5610e-04  0:05:46 1541
  2879  2.6546e-03  9.7549e-04  3.2340e-04  2.5686e-03  6.4159e-04  2.5472e-04  0:04:37 1540
  2880  2.6430e-03  9.9315e-04  3.2551e-04  2.5570e-03  6.3716e-04  2.5303e-04  0:03:41 1539

  iter  continuity  x-velocity  y-velocity      energy           k       omega     time/iter
  2881  2.6274e-03  9.9545e-04  3.2686e-04  2.5419e-03  6.3283e-04  2.5129e-04  0:02:57 1538
  2882  2.6128e-03  9.8943e-04  3.2709e-04  2.5278e-03  6.2872e-04  2.5026e-04  0:02:21 1537
  2883  2.5971e-03  9.6550e-04  3.2902e-04  2.5127e-03  6.2489e-04  2.4935e-04  0:01:53 1536
  2884  2.5873e-03  9.4917e-04  3.3433e-04  2.5033e-03  6.2114e-04  2.4841e-04  0:01:30 1535
  2885  2.5814e-03  9.5041e-04  3.3679e-04  2.4980e-03  6.1746e-04  2.4659e-04  0:01:12 1534
  2886  2.5761e-03  9.4144e-04  3.3523e-04  2.4919e-03  6.1392e-04  2.4452e-04  0:00:58 1533
  2887  2.5717e-03  9.6904e-04  3.3651e-04  2.4876e-03  6.1066e-04  2.4355e-04  0:00:46 1532
  2888  2.5601e-03  9.4114e-04  3.3240e-04  2.4766e-03  6.0764e-04  2.4270e-04  0:00:37 1531
  2889  2.5538e-03  9.2844e-04  3.3231e-04  2.4706e-03  6.0481e-04  2.4166e-04  0:05:36 1530
  2890  2.5486e-03  9.2099e-04  3.3289e-04  2.4657e-03  6.0202e-04  2.4036e-04  0:04:28 1529
  2891  2.5428e-03  9.1603e-04  3.3083e-04  2.4601e-03  5.9923e-04  2.3887e-04  0:03:34 1528

  iter  continuity  x-velocity  y-velocity      energy           k       omega     time/iter
  2892  2.5370e-03  9.1772e-04  3.3127e-04  2.4543e-03  5.9665e-04  2.3787e-04  0:02:51 1527
  2893  2.5315e-03  9.1592e-04  3.2082e-04  2.4487e-03  5.9405e-04  2.3721e-04  0:02:17 1526
  2894  2.5259e-03  9.1950e-04  3.1473e-04  2.4430e-03  5.9143e-04  2.3638e-04  0:01:50 1525
  2895  2.5187e-03  9.0614e-04  3.1100e-04  2.4365e-03  5.8884e-04  2.3564e-04  0:01:28 1524
  2896  2.5150e-03  9.1061e-04  3.1295e-04  2.4327e-03  5.8631e-04  2.3506e-04  0:01:10 1523
  2897  2.5135e-03  9.4550e-04  3.1455e-04  2.4312e-03  5.8388e-04  2.3456e-04  0:00:56 1522
  2898  2.5143e-03  9.8547e-04  3.1695e-04  2.4321e-03  5.8150e-04  2.3401e-04  0:00:45 1521
  2899  2.5101e-03  1.0095e-03  3.2091e-04  2.4288e-03  5.7923e-04  2.3388e-04  0:05:40 1520
  2900  2.5060e-03  9.9393e-04  3.2605e-04  2.4242e-03  5.7717e-04  2.3368e-04  0:04:32 1519
  2901  2.5058e-03  1.0313e-03  3.2869e-04  2.4242e-03  5.7512e-04  2.3379e-04  0:03:37 1518
  2902  2.5021e-03  1.0471e-03  3.3117e-04  2.4212e-03  5.7328e-04  2.3415e-04  0:02:54 1517

  iter  continuity  x-velocity  y-velocity      energy           k       omega     time/iter
  2903  2.4969e-03  1.0180e-03  3.3050e-04  2.4172e-03  5.7158e-04  2.3457e-04  0:02:19 1516
  2904  2.4966e-03  1.0196e-03  3.3400e-04  2.4168e-03  5.7007e-04  2.3485e-04  0:01:51 1515
  2905  2.4940e-03  1.0328e-03  3.3164e-04  2.4136e-03  5.6885e-04  2.3525e-04  0:01:29 1514
  2906  2.4920e-03  9.9792e-04  3.3218e-04  2.4111e-03  5.6790e-04  2.3550e-04  0:01:11 1513
  2907  2.4931e-03  1.0218e-03  3.3544e-04  2.4110e-03  5.6715e-04  2.3515e-04  0:00:57 1512
  2908  2.4841e-03  9.9196e-04  3.3506e-04  2.4022e-03  5.6656e-04  2.3501e-04  0:00:45 1511
  2909  2.4743e-03  9.6289e-04  3.3026e-04  2.3936e-03  5.6619e-04  2.3490e-04  0:05:38 1510
  2910  2.4666e-03  9.5080e-04  3.3222e-04  2.3859e-03  5.6602e-04  2.3492e-04  0:04:30 1509
  2911  2.4612e-03  9.6161e-04  3.2448e-04  2.3805e-03  5.6592e-04  2.3524e-04  0:03:36 1508
  2912  2.4569e-03  9.8363e-04  3.1999e-04  2.3757e-03  5.6574e-04  2.3574e-04  0:02:53 1507
  2913  2.4481e-03  9.7334e-04  3.1719e-04  2.3673e-03  5.6554e-04  2.3611e-04  0:02:18 1506

  iter  continuity  x-velocity  y-velocity      energy           k       omega     time/iter
  2914  2.4436e-03  9.8029e-04  3.1938e-04  2.3627e-03  5.6545e-04  2.3643e-04  0:01:50 1505
  2915  2.4394e-03  9.9659e-04  3.2112e-04  2.3586e-03  5.6534e-04  2.3659e-04  0:01:28 1504
  2916  2.4388e-03  1.0300e-03  3.2117e-04  2.3581e-03  5.6524e-04  2.3680e-04  0:01:11 1503
  2917  2.4352e-03  1.0362e-03  3.2289e-04  2.3545e-03  5.6516e-04  2.3730e-04  0:05:57 1502
  2918  2.4371e-03  1.0389e-03  3.2865e-04  2.3556e-03  5.6519e-04  2.3783e-04  0:04:45 1501
  2919  2.4375e-03  1.0511e-03  3.3065e-04  2.3552e-03  5.6534e-04  2.3829e-04  0:03:48 1500
  2920  2.4355e-03  1.0692e-03  3.2910e-04  2.3540e-03  5.6564e-04  2.3869e-04  0:03:02 1499
  2921  2.4268e-03  1.0394e-03  3.2536e-04  2.3470e-03  5.6607e-04  2.3926e-04  0:02:26 1498
  2922  2.4236e-03  9.9871e-04  3.2306e-04  2.3439e-03  5.6664e-04  2.4019e-04  0:01:57 1497
  2923  2.4260e-03  1.0293e-03  3.2227e-04  2.3465e-03  5.6732e-04  2.4107e-04  0:01:33 1496
  2924  2.4252e-03  1.0484e-03  3.2450e-04  2.3462e-03  5.6811e-04  2.4169e-04  0:01:14 1495

  iter  continuity  x-velocity  y-velocity      energy           k       omega     time/iter
  2925  2.4326e-03  1.0486e-03  3.2836e-04  2.3542e-03  5.6899e-04  2.4237e-04  0:01:00 1494
  2926  2.4460e-03  1.0874e-03  3.3772e-04  2.3666e-03  5.6994e-04  2.4254e-04  0:00:48 1493
  2927  2.4586e-03  1.1091e-03  3.3772e-04  2.3776e-03  5.7098e-04  2.4271e-04  0:05:36 1492
  2928  2.4557e-03  1.0721e-03  3.3297e-04  2.3750e-03  5.7211e-04  2.4294e-04  0:04:29 1491
  2929  2.4556e-03  1.0222e-03  3.2065e-04  2.3760e-03  5.7318e-04  2.4332e-04  0:03:35 1490
  2930  2.4616e-03  1.0079e-03  3.1506e-04  2.3828e-03  5.7416e-04  2.4331e-04  0:02:52 1489
  2931  2.4686e-03  1.0006e-03  3.1162e-04  2.3909e-03  5.7523e-04  2.4379e-04  0:02:17 1488
  2932  2.4766e-03  9.8454e-04  3.0997e-04  2.3992e-03  5.7635e-04  2.4466e-04  0:01:50 1487
  2933  2.4834e-03  9.7054e-04  3.0769e-04  2.4068e-03  5.7756e-04  2.4537e-04  0:01:28 1486
  2934  2.4959e-03  9.9014e-04  3.0480e-04  2.4196e-03  5.7881e-04  2.4584e-04  0:01:10 1485
  2935  2.5084e-03  1.0174e-03  3.0630e-04  2.4325e-03  5.8022e-04  2.4628e-04  0:00:56 1484

  iter  continuity  x-velocity  y-velocity      energy           k       omega     time/iter
  2936  2.5215e-03  1.0068e-03  3.0995e-04  2.4454e-03  5.8178e-04  2.4661e-04  0:00:45 1483
  2937  2.5345e-03  1.0135e-03  3.1171e-04  2.4585e-03  5.8364e-04  2.4710e-04  0:05:32 1482
  2938  2.5489e-03  1.0379e-03  3.1209e-04  2.4734e-03  5.8557e-04  2.4770e-04  0:04:26 1481
  2939  2.5563e-03  1.0238e-03  3.1267e-04  2.4816e-03  5.8758e-04  2.4798e-04  0:03:32 1480
  2940  2.5675e-03  1.0097e-03  3.1187e-04  2.4933e-03  5.8963e-04  2.4795e-04  0:02:50 1479
  2941  2.5806e-03  1.0177e-03  3.1330e-04  2.5069e-03  5.9175e-04  2.4846e-04  0:02:16 1478
  2942  2.5956e-03  1.0460e-03  3.1433e-04  2.5225e-03  5.9400e-04  2.4882e-04  0:01:49 1477
  2943  2.6087e-03  1.0356e-03  3.1948e-04  2.5365e-03  5.9625e-04  2.4894e-04  0:01:27 1476
  2944  2.6253e-03  1.0534e-03  3.2538e-04  2.5535e-03  5.9847e-04  2.4865e-04  0:01:09 1475
  2945  2.6432e-03  1.0854e-03  3.2133e-04  2.5711e-03  6.0060e-04  2.4875e-04  0:00:55 1474
  2946  2.6577e-03  1.0656e-03  3.1604e-04  2.5850e-03  6.0290e-04  2.4905e-04  0:00:44 1473

  iter  continuity  x-velocity  y-velocity      energy           k       omega     time/iter
  2947  2.6774e-03  1.1085e-03  3.1620e-04  2.6041e-03  6.0521e-04  2.4929e-04  0:05:30 1472
  2948  2.6807e-03  1.0541e-03  3.1037e-04  2.6087e-03  6.0738e-04  2.4940e-04  0:04:24 1471
  2949  2.6884e-03  1.0301e-03  3.0385e-04  2.6179e-03  6.0947e-04  2.4919e-04  0:03:31 1470
  2950  2.6978e-03  1.0179e-03  2.9756e-04  2.6285e-03  6.1144e-04  2.4861e-04  0:02:49 1469
  2951  2.7050e-03  9.9401e-04  2.9264e-04  2.6367e-03  6.1331e-04  2.4816e-04  0:02:15 1468
  2952  2.7156e-03  9.8272e-04  2.8798e-04  2.6475e-03  6.1506e-04  2.4836e-04  0:01:48 1467
  2953  2.7261e-03  9.9046e-04  2.9101e-04  2.6586e-03  6.1675e-04  2.4796e-04  0:01:26 1466
  2954  2.7367e-03  9.8407e-04  2.9050e-04  2.6698e-03  6.1832e-04  2.4719e-04  0:01:09 1465
  2955  2.7495e-03  1.0049e-03  2.9158e-04  2.6829e-03  6.1981e-04  2.4651e-04  0:00:55 1464
  2956  2.7621e-03  1.0381e-03  2.9142e-04  2.6953e-03  6.2117e-04  2.4607e-04  0:00:44 1463
  2957  2.7693e-03  1.0426e-03  2.9097e-04  2.7030e-03  6.2241e-04  2.4566e-04  0:05:28 1462

  iter  continuity  x-velocity  y-velocity      energy           k       omega     time/iter
  2958  2.7730e-03  1.0238e-03  2.9174e-04  2.7078e-03  6.2358e-04  2.4517e-04  0:04:22 1461
  2959  2.7764e-03  9.9515e-04  2.9263e-04  2.7117e-03  6.2462e-04  2.4496e-04  0:03:29 1460
  2960  2.7812e-03  9.7675e-04  2.9128e-04  2.7170e-03  6.2557e-04  2.4491e-04  0:02:47 1459
  2961  2.7875e-03  1.0098e-03  2.9076e-04  2.7240e-03  6.2648e-04  2.4475e-04  0:02:14 1458
  2962  2.7879e-03  1.0022e-03  2.9301e-04  2.7250e-03  6.2743e-04  2.4420e-04  0:01:47 1457
  2963  2.7900e-03  9.9162e-04  2.9324e-04  2.7275e-03  6.2841e-04  2.4389e-04  0:01:26 1456
  2964  2.7949e-03  1.0251e-03  2.9770e-04  2.7323e-03  6.2938e-04  2.4380e-04  0:01:08 1455
  2965  2.7934e-03  1.0107e-03  2.9891e-04  2.7309e-03  6.3025e-04  2.4350e-04  0:00:55 1454
  2966  2.7982e-03  1.0181e-03  3.0043e-04  2.7353e-03  6.3119e-04  2.4301e-04  0:00:44 1453
  2967  2.8001e-03  1.0217e-03  3.0286e-04  2.7365e-03  6.3216e-04  2.4225e-04  0:05:25 1452
  2968  2.7960e-03  1.0146e-03  3.0050e-04  2.7332e-03  6.3301e-04  2.4202e-04  0:04:20 1451

  iter  continuity  x-velocity  y-velocity      energy           k       omega     time/iter
  2969  2.7859e-03  9.5221e-04  2.9035e-04  2.7243e-03  6.3369e-04  2.4170e-04  0:03:28 1450
  2970  2.7786e-03  9.2886e-04  2.8020e-04  2.7179e-03  6.3427e-04  2.4135e-04  0:02:46 1449
  2971  2.7723e-03  9.0129e-04  2.7159e-04  2.7120e-03  6.3488e-04  2.4089e-04  0:02:13 1448
  2972  2.7667e-03  8.8732e-04  2.7528e-04  2.7067e-03  6.3541e-04  2.4049e-04  0:01:46 1447
  2973  2.7613e-03  8.8271e-04  2.7610e-04  2.7021e-03  6.3575e-04  2.4013e-04  0:01:25 1446
  2974  2.7543e-03  8.7774e-04  2.7555e-04  2.6952e-03  6.3593e-04  2.3979e-04  0:01:08 1445
  2975  2.7464e-03  8.8421e-04  2.7095e-04  2.6877e-03  6.3596e-04  2.3938e-04  0:00:54 1444
  2976  2.7406e-03  8.9713e-04  2.6810e-04  2.6818e-03  6.3588e-04  2.3904e-04  0:00:43 1443
  2977  2.7330e-03  9.1481e-04  2.7066e-04  2.6743e-03  6.3576e-04  2.3845e-04  0:05:23 1442
  2978  2.7257e-03  9.2312e-04  2.7537e-04  2.6672e-03  6.3555e-04  2.3810e-04  0:04:18 1441
  2979  2.7139e-03  9.0649e-04  2.7503e-04  2.6556e-03  6.3527e-04  2.3783e-04  0:03:26 1440

  iter  continuity  x-velocity  y-velocity      energy           k       omega     time/iter
  2980  2.7030e-03  9.1230e-04  2.7499e-04  2.6451e-03  6.3496e-04  2.3730e-04  0:02:45 1439
  2981  2.6902e-03  9.2642e-04  2.7398e-04  2.6330e-03  6.3457e-04  2.3670e-04  0:02:12 1438
  2982  2.6772e-03  9.1517e-04  2.7185e-04  2.6204e-03  6.3413e-04  2.3641e-04  0:01:46 1437
  2983  2.6657e-03  9.2704e-04  2.7467e-04  2.6092e-03  6.3361e-04  2.3562e-04  0:01:24 1436
  2984  2.6551e-03  9.6059e-04  2.7894e-04  2.5988e-03  6.3296e-04  2.3471e-04  0:01:07 1435
  2985  2.6405e-03  9.6218e-04  2.8301e-04  2.5846e-03  6.3229e-04  2.3378e-04  0:00:54 1434
  2986  2.6330e-03  9.7744e-04  2.8921e-04  2.5768e-03  6.3159e-04  2.3307e-04  0:00:43 1433
  2987  2.6205e-03  9.9063e-04  2.8939e-04  2.5638e-03  6.3087e-04  2.3244e-04  0:05:21 1432
  2988  2.6147e-03  1.0134e-03  2.8749e-04  2.5565e-03  6.3013e-04  2.3155e-04  0:04:17 1431
  2989  2.5962e-03  1.0112e-03  2.8175e-04  2.5378e-03  6.2923e-04  2.3110e-04  0:03:25 1430
  2990  2.5636e-03  8.8812e-04  2.7201e-04  2.5072e-03  6.2826e-04  2.3051e-04  0:02:44 1429

  iter  continuity  x-velocity  y-velocity      energy           k       omega     time/iter
  2991  2.5412e-03  8.4084e-04  2.6465e-04  2.4858e-03  6.2729e-04  2.2992e-04  0:02:11 1428
  2992  2.5203e-03  8.2347e-04  2.6100e-04  2.4656e-03  6.2629e-04  2.2919e-04  0:01:45 1427
  2993  2.4986e-03  8.1488e-04  2.5860e-04  2.4445e-03  6.2526e-04  2.2837e-04  0:01:24 1426
  2994  2.4759e-03  7.9972e-04  2.5524e-04  2.4221e-03  6.2418e-04  2.2751e-04  0:01:07 1425
  2995  2.4528e-03  7.8836e-04  2.5431e-04  2.3991e-03  6.2301e-04  2.2664e-04  0:00:54 1424
  2996  2.4312e-03  7.8066e-04  2.5160e-04  2.3773e-03  6.2176e-04  2.2589e-04  0:00:43 1423
  2997  2.4098e-03  7.9481e-04  2.5623e-04  2.3557e-03  6.2033e-04  2.2483e-04  0:05:19 1422
  2998  2.3868e-03  7.9359e-04  2.5883e-04  2.3327e-03  6.1882e-04  2.2370e-04  0:04:15 1421
  2999  2.3641e-03  7.9305e-04  2.5800e-04  2.3097e-03  6.1722e-04  2.2260e-04  0:03:24 1420
  3000  2.3420e-03  8.0314e-04  2.5782e-04  2.2874e-03  6.1565e-04  2.2115e-04  0:02:43 1419
  3001  2.3214e-03  8.1809e-04  2.5998e-04  2.2666e-03  6.1409e-04  2.2067e-04  0:02:10 1418

  iter  continuity  x-velocity  y-velocity      energy           k       omega     time/iter
  3002  2.2973e-03  8.3020e-04  2.6022e-04  2.2426e-03  6.1256e-04  2.2017e-04  0:01:44 1417
  3003  2.2716e-03  8.1882e-04  2.5736e-04  2.2167e-03  6.1101e-04  2.1944e-04  0:01:23 1416
  3004  2.2465e-03  8.1210e-04  2.5424e-04  2.1916e-03  6.0949e-04  2.1853e-04  0:01:06 1415
  3005  2.2252e-03  8.3367e-04  2.5490e-04  2.1706e-03  6.0799e-04  2.1761e-04  0:00:53 1414
  3006  2.2026e-03  8.5553e-04  2.5878e-04  2.1478e-03  6.0649e-04  2.1661e-04  0:00:42 1413
  3007  2.1801e-03  8.5719e-04  2.6360e-04  2.1253e-03  6.0499e-04  2.1563e-04  0:05:16 1412
  3008  2.1616e-03  8.7847e-04  2.6523e-04  2.1063e-03  6.0355e-04  2.1463e-04  0:04:13 1411
  3009  2.1374e-03  8.5782e-04  2.6483e-04  2.0812e-03  6.0217e-04  2.1368e-04  0:03:22 1410
  3010  2.1251e-03  9.0765e-04  2.6310e-04  2.0673e-03  6.0076e-04  2.1291e-04  0:02:42 1409
  3011  2.0953e-03  8.8192e-04  2.6218e-04  2.0376e-03  5.9939e-04  2.1201e-04  0:02:09 1408
  3012  2.0651e-03  8.0590e-04  2.5604e-04  2.0086e-03  5.9799e-04  2.1071e-04  0:01:43 1407

  iter  continuity  x-velocity  y-velocity      energy           k       omega     time/iter
  3013  2.0425e-03  7.9139e-04  2.5514e-04  1.9866e-03  5.9658e-04  2.0901e-04  0:01:23 1406
  3014  2.0232e-03  8.0104e-04  2.5279e-04  1.9678e-03  5.9520e-04  2.0797e-04  0:01:06 1405
  3015  2.0040e-03  8.1002e-04  2.4648e-04  1.9482e-03  5.9384e-04  2.0723e-04  0:00:53 1404
  3016  1.9873e-03  8.1977e-04  2.4142e-04  1.9305e-03  5.9247e-04  2.0655e-04  0:00:42 1403
  3017  1.9710e-03  8.4221e-04  2.3919e-04  1.9134e-03  5.9109e-04  2.0576e-04  0:05:14 1402
  3018  1.9503e-03  8.2408e-04  2.4237e-04  1.8922e-03  5.8966e-04  2.0491e-04  0:04:11 1401
  3019  1.9246e-03  7.7582e-04  2.4247e-04  1.8672e-03  5.8820e-04  2.0384e-04  0:03:21 1400
  3020  1.9058e-03  7.5731e-04  2.4177e-04  1.8486e-03  5.8671e-04  2.0305e-04  0:02:40 1399
  3021  1.8869e-03  7.4389e-04  2.3850e-04  1.8295e-03  5.8521e-04  2.0238e-04  0:02:08 1398
  3022  1.8694e-03  7.3722e-04  2.3546e-04  1.8117e-03  5.8365e-04  2.0172e-04  0:01:43 1397
  3023  1.8550e-03  7.5803e-04  2.3533e-04  1.7973e-03  5.8206e-04  2.0098e-04  0:01:22 1396

  iter  continuity  x-velocity  y-velocity      energy           k       omega     time/iter
  3024  1.8403e-03  7.5392e-04  2.3734e-04  1.7825e-03  5.8046e-04  2.0019e-04  0:01:06 1395
  3025  1.8265e-03  7.5672e-04  2.4006e-04  1.7684e-03  5.7887e-04  1.9936e-04  0:00:52 1394
  3026  1.8134e-03  7.6900e-04  2.4125e-04  1.7552e-03  5.7731e-04  1.9842e-04  0:05:20 1393
  3027  1.8014e-03  7.8404e-04  2.4012e-04  1.7433e-03  5.7575e-04  1.9748e-04  0:04:16 1392
  3028  1.7903e-03  7.8421e-04  2.4177e-04  1.7324e-03  5.7424e-04  1.9683e-04  0:03:25 1391
  3029  1.7838e-03  7.9783e-04  2.4685e-04  1.7254e-03  5.7273e-04  1.9615e-04  0:02:44 1390
  3030  1.7778e-03  8.1214e-04  2.4826e-04  1.7186e-03  5.7115e-04  1.9545e-04  0:02:11 1389
  3031  1.7729e-03  8.0948e-04  2.4533e-04  1.7125e-03  5.6961e-04  1.9472e-04  0:01:45 1388
  3032  1.7734e-03  8.4091e-04  2.4587e-04  1.7109e-03  5.6807e-04  1.9404e-04  0:01:24 1387
  3033  1.7665e-03  8.3981e-04  2.4967e-04  1.7037e-03  5.6650e-04  1.9339e-04  0:01:07 1386
  3034  1.7483e-03  7.4502e-04  2.5235e-04  1.6868e-03  5.6486e-04  1.9267e-04  0:00:53 1385

  iter  continuity  x-velocity  y-velocity      energy           k       omega     time/iter
  3035  1.7410e-03  7.2766e-04  2.4724e-04  1.6807e-03  5.6330e-04  1.9210e-04  0:00:43 1384
  3036  1.7359e-03  7.2088e-04  2.4305e-04  1.6763e-03  5.6181e-04  1.9167e-04  0:05:11 1383
  3037  1.7350e-03  7.2297e-04  2.3458e-04  1.6756e-03  5.6031e-04  1.9143e-04  0:04:08 1382
  3038  1.7376e-03  7.4441e-04  2.3373e-04  1.6780e-03  5.5874e-04  1.9116e-04  0:03:19 1381
  3039  1.7386e-03  7.4479e-04  2.3227e-04  1.6788e-03  5.5711e-04  1.9100e-04  0:02:39 1380
  3040  1.7443e-03  7.5285e-04  2.3160e-04  1.6845e-03  5.5556e-04  1.9054e-04  0:02:07 1379
  3041  1.7496e-03  7.6700e-04  2.3260e-04  1.6897e-03  5.5402e-04  1.9013e-04  0:01:41 1378
  3042  1.7558e-03  7.6656e-04  2.3187e-04  1.6958e-03  5.5247e-04  1.8997e-04  0:01:21 1377
  3043  1.7649e-03  7.8076e-04  2.3072e-04  1.7044e-03  5.5094e-04  1.8959e-04  0:01:05 1376
  3044  1.7758e-03  7.9510e-04  2.2923e-04  1.7146e-03  5.4943e-04  1.8915e-04  0:05:27 1375
  3045  1.7882e-03  8.1384e-04  2.3233e-04  1.7266e-03  5.4797e-04  1.8904e-04  0:04:21 1374

  iter  continuity  x-velocity  y-velocity      energy           k       omega     time/iter
  3046  1.7878e-03  7.6772e-04  2.3258e-04  1.7271e-03  5.4651e-04  1.8878e-04  0:03:29 1373
  3047  1.7909e-03  7.2423e-04  2.3027e-04  1.7317e-03  5.4503e-04  1.8844e-04  0:02:47 1372
  3048  1.7991e-03  7.2108e-04  2.3186e-04  1.7410e-03  5.4356e-04  1.8794e-04  0:02:13 1371
  3049  1.8111e-03  7.4293e-04  2.3480e-04  1.7537e-03  5.4217e-04  1.8720e-04  0:01:47 1370
  3050  1.8218e-03  7.6949e-04  2.3500e-04  1.7653e-03  5.4084e-04  1.8659e-04  0:01:25 1369
  3051  1.8345e-03  7.7853e-04  2.3396e-04  1.7785e-03  5.3962e-04  1.8613e-04  0:01:08 1368
  3052  1.8518e-03  8.0902e-04  2.3526e-04  1.7957e-03  5.3850e-04  1.8593e-04  0:00:55 1367
  3053  1.8648e-03  8.1567e-04  2.3925e-04  1.8085e-03  5.3754e-04  1.8574e-04  0:05:17 1366
  3054  1.8804e-03  8.0100e-04  2.3904e-04  1.8234e-03  5.3675e-04  1.8571e-04  0:04:13 1365
  3055  1.9008e-03  8.4430e-04  2.4303e-04  1.8425e-03  5.3605e-04  1.8565e-04  0:03:22 1364
  3056  1.9103e-03  8.2281e-04  2.4332e-04  1.8522e-03  5.3544e-04  1.8559e-04  0:02:42 1363

  iter  continuity  x-velocity  y-velocity      energy           k       omega     time/iter
  3057  1.9129e-03  7.2557e-04  2.4147e-04  1.8567e-03  5.3513e-04  1.8563e-04  0:02:09 1362
  3058  1.9245e-03  6.9284e-04  2.4270e-04  1.8693e-03  5.3516e-04  1.8567e-04  0:01:43 1361
  3059  1.9381e-03  6.8260e-04  2.4336e-04  1.8837e-03  5.3553e-04  1.8576e-04  0:01:23 1360
  3060  1.9538e-03  6.8318e-04  2.4633e-04  1.8997e-03  5.3609e-04  1.8584e-04  0:01:06 1359
  3061  1.9718e-03  6.8435e-04  2.4778e-04  1.9179e-03  5.3680e-04  1.8556e-04  0:05:24 1358
  3062  1.9911e-03  6.8566e-04  2.4992e-04  1.9376e-03  5.3772e-04  1.8572e-04  0:04:19 1357
  3063  2.0122e-03  6.9133e-04  2.5090e-04  1.9589e-03  5.3885e-04  1.8561e-04  0:03:27 1356
  3064  2.0321e-03  7.1098e-04  2.4946e-04  1.9792e-03  5.3999e-04  1.8585e-04  0:02:46 1355
  3065  2.0534e-03  7.2157e-04  2.4298e-04  2.0007e-03  5.4112e-04  1.8598e-04  0:02:12 1354
  3066  2.0745e-03  7.3377e-04  2.3950e-04  2.0220e-03  5.4220e-04  1.8601e-04  0:01:46 1353
  3067  2.0998e-03  7.7206e-04  2.4106e-04  2.0473e-03  5.4327e-04  1.8586e-04  0:01:25 1352

  iter  continuity  x-velocity  y-velocity      energy           k       omega     time/iter
  3068  2.1205e-03  7.8581e-04  2.4364e-04  2.0682e-03  5.4432e-04  1.8571e-04  0:01:08 1351
  3069  2.1392e-03  7.8244e-04  2.4173e-04  2.0873e-03  5.4538e-04  1.8561e-04  0:00:54 1350
  3070  2.1602e-03  7.9427e-04  2.4150e-04  2.1084e-03  5.4642e-04  1.8548e-04  0:00:43 1349
  3071  2.1789e-03  8.0780e-04  2.4044e-04  2.1272e-03  5.4747e-04  1.8538e-04  0:05:04 1348
  3072  2.1990e-03  8.3685e-04  2.3960e-04  2.1473e-03  5.4853e-04  1.8531e-04  0:04:03 1347
  3073  2.2166e-03  8.4964e-04  2.4045e-04  2.1654e-03  5.4950e-04  1.8519e-04  0:03:14 1346
  3074  2.2273e-03  8.1933e-04  2.4178e-04  2.1767e-03  5.5040e-04  1.8514e-04  0:02:35 1345
  3075  2.2394e-03  7.9528e-04  2.4095e-04  2.1899e-03  5.5124e-04  1.8501e-04  0:02:04 1344
  3076  2.2553e-03  8.0947e-04  2.4186e-04  2.2062e-03  5.5204e-04  1.8491e-04  0:01:39 1343
  3077  2.2680e-03  7.9208e-04  2.4277e-04  2.2189e-03  5.5277e-04  1.8470e-04  0:01:19 1342
  3078  2.2888e-03  8.3315e-04  2.4504e-04  2.2388e-03  5.5347e-04  1.8449e-04  0:01:03 1341

  iter  continuity  x-velocity  y-velocity      energy           k       omega     time/iter
  3079  2.3049e-03  8.6268e-04  2.4632e-04  2.2544e-03  5.5412e-04  1.8473e-04  0:00:51 1340
  3080  2.3063e-03  8.0515e-04  2.4565e-04  2.2567e-03  5.5473e-04  1.8494e-04  0:05:08 1339
  3081  2.3119e-03  7.5521e-04  2.4209e-04  2.2635e-03  5.5531e-04  1.8506e-04  0:04:06 1338
  3082  2.3194e-03  7.2976e-04  2.4004e-04  2.2717e-03  5.5587e-04  1.8510e-04  0:03:17 1337
  3083  2.3281e-03  7.2827e-04  2.3996e-04  2.2807e-03  5.5637e-04  1.8531e-04  0:02:38 1336
  3084  2.3366e-03  7.2431e-04  2.4111e-04  2.2893e-03  5.5683e-04  1.8550e-04  0:02:06 1335
  3085  2.3453e-03  7.2397e-04  2.4176e-04  2.2980e-03  5.5729e-04  1.8543e-04  0:01:41 1334
  3086  2.3538e-03  7.2466e-04  2.4324e-04  2.3068e-03  5.5770e-04  1.8544e-04  0:01:20 1333
  3087  2.3614e-03  7.1966e-04  2.4706e-04  2.3144e-03  5.5807e-04  1.8575e-04  0:01:04 1332
  3088  2.3689e-03  7.2847e-04  2.4869e-04  2.3219e-03  5.5844e-04  1.8588e-04  0:00:51 1331
  3089  2.3750e-03  7.3544e-04  2.4517e-04  2.3280e-03  5.5872e-04  1.8574e-04  0:00:41 1330

  iter  continuity  x-velocity  y-velocity      energy           k       omega     time/iter
  3090  2.3810e-03  7.4194e-04  2.4728e-04  2.3340e-03  5.5883e-04  1.8520e-04  0:04:59 1329
  3091  2.3872e-03  7.5274e-04  2.4890e-04  2.3402e-03  5.5886e-04  1.8517e-04  0:03:59 1328
  3092  2.3916e-03  7.7434e-04  2.4935e-04  2.3447e-03  5.5884e-04  1.8518e-04  0:03:11 1327
  3093  2.3929e-03  7.9004e-04  2.4856e-04  2.3460e-03  5.5874e-04  1.8499e-04  0:02:33 1326
  3094  2.3932e-03  8.0105e-04  2.4506e-04  2.3467e-03  5.5862e-04  1.8473e-04  0:02:02 1325
  3095  2.3918e-03  8.1004e-04  2.4519e-04  2.3455e-03  5.5853e-04  1.8457e-04  0:01:37 1324
  3096  2.3910e-03  8.3943e-04  2.4519e-04  2.3449e-03  5.5830e-04  1.8455e-04  0:01:18 1323
  3097  2.3873e-03  8.5121e-04  2.4480e-04  2.3411e-03  5.5795e-04  1.8457e-04  0:01:02 1322
  3098  2.3828e-03  8.5168e-04  2.4153e-04  2.3367e-03  5.5749e-04  1.8460e-04  0:00:50 1321
  3099  2.3819e-03  8.8662e-04  2.4326e-04  2.3351e-03  5.5686e-04  1.8458e-04  0:00:40 1320
  3100  2.3766e-03  9.0737e-04  2.4246e-04  2.3293e-03  5.5612e-04  1.8468e-04  0:04:56 1319

[...]
  3952  1.5459e-03  4.0347e-04  1.3908e-04  1.5148e-03  2.3730e-04  1.0151e-04  0:00:54  467
  3953  1.5589e-03  3.9669e-04  1.3983e-04  1.5279e-03  2.3788e-04  1.0150e-04  0:00:43  466
  3954  1.5722e-03  3.9158e-04  1.4034e-04  1.5413e-03  2.3844e-04  1.0148e-04  0:00:34  465
  3955  1.5862e-03  3.9514e-04  1.4058e-04  1.5554e-03  2.3901e-04  1.0146e-04  0:00:27  464
  3956  1.6000e-03  3.9232e-04  1.4128e-04  1.5693e-03  2.3956e-04  1.0141e-04  0:00:22  463
  3957  1.6132e-03  3.7636e-04  1.4143e-04  1.5827e-03  2.4013e-04  1.0133e-04  0:00:17  462
  3958  1.6268e-03  3.6793e-04  1.4175e-04  1.5963e-03  2.4074e-04  1.0122e-04  0:00:14  461

  iter  continuity  x-velocity  y-velocity      energy           k       omega     time/iter
  3959  1.6404e-03  3.6285e-04  1.4238e-04  1.6101e-03  2.4137e-04  1.0107e-04  0:01:43  460
  3960  1.6546e-03  3.6701e-04  1.4300e-04  1.6244e-03  2.4199e-04  1.0089e-04  0:01:22  459
  3961  1.6684e-03  3.6063e-04  1.4386e-04  1.6384e-03  2.4260e-04  1.0071e-04  0:01:06  458
  3962  1.6824e-03  3.5671e-04  1.4466e-04  1.6525e-03  2.4317e-04  1.0047e-04  0:00:52  457
  3963  1.6962e-03  3.5200e-04  1.4513e-04  1.6664e-03  2.4369e-04  1.0015e-04  0:00:42  456
  3964  1.7099e-03  3.4443e-04  1.4522e-04  1.6803e-03  2.4420e-04  9.9854e-05  0:00:33  455
  3965  1.7240e-03  3.4114e-04  1.4525e-04  1.6945e-03  2.4473e-04  9.9541e-05  0:00:27  454
  3966  1.7383e-03  3.3611e-04  1.4510e-04  1.7089e-03  2.4527e-04  9.9198e-05  0:00:21  453
  3967  1.7529e-03  3.3449e-04  1.4489e-04  1.7238e-03  2.4580e-04  9.8841e-05  0:00:17  452
  3968  1.7678e-03  3.3062e-04  1.4420e-04  1.7388e-03  2.4630e-04  9.8463e-05  0:00:14  451
  3969  1.7831e-03  3.2872e-04  1.4306e-04  1.7543e-03  2.4680e-04  9.8049e-05  0:00:11  450

  iter  continuity  x-velocity  y-velocity      energy           k       omega     time/iter
  3970  1.7989e-03  3.2996e-04  1.4212e-04  1.7701e-03  2.4726e-04  9.7655e-05  0:01:38  449
  3971  1.8147e-03  3.3101e-04  1.4182e-04  1.7860e-03  2.4766e-04  9.7246e-05  0:01:19  448
  3972  1.8307e-03  3.3256e-04  1.4133e-04  1.8022e-03  2.4804e-04  9.6860e-05  0:01:03  447
  3973  1.8472e-03  3.3540e-04  1.4005e-04  1.8187e-03  2.4845e-04  9.6480e-05  0:00:50  446
  3974  1.8639e-03  3.3728e-04  1.3917e-04  1.8355e-03  2.4882e-04  9.6122e-05  0:00:40  445
  3975  1.8808e-03  3.3910e-04  1.3859e-04  1.8525e-03  2.4917e-04  9.5773e-05  0:00:32  444
  3976  1.8979e-03  3.4015e-04  1.3854e-04  1.8696e-03  2.4948e-04  9.5444e-05  0:00:25  443
  3977  1.9151e-03  3.4117e-04  1.3857e-04  1.8868e-03  2.4975e-04  9.5155e-05  0:01:49  442
  3978  1.9324e-03  3.4167e-04  1.3832e-04  1.9041e-03  2.4999e-04  9.4886e-05  0:01:27  441
  3979  1.9497e-03  3.4442e-04  1.3786e-04  1.9214e-03  2.5013e-04  9.4601e-05  0:01:09  440
  3980  1.9667e-03  3.4334e-04  1.3727e-04  1.9384e-03  2.5017e-04  9.4287e-05  0:00:55  439

  iter  continuity  x-velocity  y-velocity      energy           k       omega     time/iter
  3981  1.9836e-03  3.4365e-04  1.3677e-04  1.9552e-03  2.5013e-04  9.3947e-05  0:00:44  438
  3982  2.0000e-03  3.4234e-04  1.3663e-04  1.9715e-03  2.5004e-04  9.3582e-05  0:00:35  437
  3983  2.0158e-03  3.3774e-04  1.3679e-04  1.9873e-03  2.4988e-04  9.3204e-05  0:00:28  436
  3984  2.0312e-03  3.3492e-04  1.3669e-04  2.0026e-03  2.4967e-04  9.2812e-05  0:00:22  435
  3985  2.0463e-03  3.3462e-04  1.3624e-04  2.0176e-03  2.4940e-04  9.2429e-05  0:00:18  434
  3986  2.0609e-03  3.3130e-04  1.3558e-04  2.0322e-03  2.4907e-04  9.2046e-05  0:00:14  433
  3987  2.0751e-03  3.3038e-04  1.3442e-04  2.0464e-03  2.4870e-04  9.1640e-05  0:01:38  432
  3988  2.0889e-03  3.2748e-04  1.3369e-04  2.0601e-03  2.4825e-04  9.1212e-05  0:01:18  431
  3989  2.1022e-03  3.2515e-04  1.3304e-04  2.0733e-03  2.4775e-04  9.0769e-05  0:01:02  430
  3990  2.1150e-03  3.2387e-04  1.3235e-04  2.0861e-03  2.4719e-04  9.0303e-05  0:00:50  429
  3991  2.1276e-03  3.2426e-04  1.3187e-04  2.0986e-03  2.4659e-04  8.9826e-05  0:00:40  428

  iter  continuity  x-velocity  y-velocity      energy           k       omega     time/iter
  3992  2.1398e-03  3.2733e-04  1.3150e-04  2.1107e-03  2.4594e-04  8.9338e-05  0:00:32  427
  3993  2.1516e-03  3.2982e-04  1.3120e-04  2.1224e-03  2.4524e-04  8.8839e-05  0:00:25  426
  3994  2.1629e-03  3.3102e-04  1.3060e-04  2.1337e-03  2.4450e-04  8.8353e-05  0:00:20  425
  3995  2.1739e-03  3.3181e-04  1.3007e-04  2.1446e-03  2.4372e-04  8.7839e-05  0:00:16  424
  3996  2.1845e-03  3.3038e-04  1.2963e-04  2.1552e-03  2.4287e-04  8.7307e-05  0:00:13  423
  3997  2.1945e-03  3.2395e-04  1.2858e-04  2.1651e-03  2.4195e-04  8.6766e-05  0:01:35  422
  3998  2.2042e-03  3.2050e-04  1.2750e-04  2.1748e-03  2.4096e-04  8.6216e-05  0:01:16  421
  3999  2.2137e-03  3.1757e-04  1.2670e-04  2.1842e-03  2.3993e-04  8.5643e-05  0:01:00  420
  4000  2.2229e-03  3.1710e-04  1.2606e-04  2.1934e-03  2.3887e-04  8.5064e-05  0:00:48  419
  4001  2.2317e-03  3.1557e-04  1.2541e-04  2.2021e-03  2.3778e-04  8.4503e-05  0:00:38  418
  4002  2.2402e-03  3.1614e-04  1.2460e-04  2.2106e-03  2.3668e-04  8.3944e-05  0:00:31  417

  iter  continuity  x-velocity  y-velocity      energy           k       omega     time/iter
  4003  2.2482e-03  3.1408e-04  1.2402e-04  2.2185e-03  2.3556e-04  8.3391e-05  0:00:24  416
  4004  2.2558e-03  3.1071e-04  1.2358e-04  2.2261e-03  2.3441e-04  8.2849e-05  0:00:20  415
  4005  2.2631e-03  3.0751e-04  1.2310e-04  2.2333e-03  2.3322e-04  8.2331e-05  0:00:16  414
  4006  2.2699e-03  3.0360e-04  1.2247e-04  2.2401e-03  2.3198e-04  8.1840e-05  0:00:12  413
  4007  2.2765e-03  3.0020e-04  1.2160e-04  2.2466e-03  2.3071e-04  8.1359e-05  0:01:32  412
  4008  2.2828e-03  2.9837e-04  1.2042e-04  2.2529e-03  2.2940e-04  8.0906e-05  0:01:14  411
  4009  2.2888e-03  2.9851e-04  1.1939e-04  2.2588e-03  2.2804e-04  8.0460e-05  0:00:59  410
  4010  2.2945e-03  3.0092e-04  1.1851e-04  2.2644e-03  2.2661e-04  8.0052e-05  0:00:47  409
  4011  2.2999e-03  3.0367e-04  1.1751e-04  2.2698e-03  2.2518e-04  7.9658e-05  0:00:37  408
  4012  2.3049e-03  3.0352e-04  1.1660e-04  2.2746e-03  2.2375e-04  7.9276e-05  0:00:30  407
  4013  2.3096e-03  3.0413e-04  1.1578e-04  2.2792e-03  2.2230e-04  7.8914e-05  0:00:24  406

  iter  continuity  x-velocity  y-velocity      energy           k       omega     time/iter
  4014  2.3138e-03  3.0288e-04  1.1470e-04  2.2834e-03  2.2084e-04  7.8560e-05  0:00:19  405
  4015  2.3176e-03  2.9997e-04  1.1393e-04  2.2870e-03  2.1936e-04  7.8214e-05  0:00:15  404
  4016  2.3210e-03  2.9728e-04  1.1315e-04  2.2903e-03  2.1788e-04  7.7857e-05  0:00:12  403
  4017  2.3240e-03  2.9660e-04  1.1252e-04  2.2933e-03  2.1639e-04  7.7496e-05  0:01:30  402
  4018  2.3268e-03  2.9620e-04  1.1204e-04  2.2960e-03  2.1488e-04  7.7148e-05  0:01:12  401
  4019  2.3293e-03  2.9557e-04  1.1170e-04  2.2984e-03  2.1337e-04  7.6803e-05  0:00:57  400
  4020  2.3312e-03  2.9151e-04  1.1128e-04  2.3002e-03  2.1181e-04  7.6462e-05  0:00:46  399
  4021  2.3328e-03  2.8652e-04  1.1057e-04  2.3017e-03  2.1021e-04  7.6109e-05  0:00:37  398
  4022  2.3339e-03  2.8327e-04  1.0950e-04  2.3028e-03  2.0854e-04  7.5736e-05  0:00:29  397
  4023  2.3347e-03  2.8260e-04  1.0826e-04  2.3035e-03  2.0683e-04  7.5347e-05  0:00:23  396
  4024  2.3351e-03  2.7825e-04  1.0718e-04  2.3038e-03  2.0508e-04  7.4978e-05  0:00:19  395

  iter  continuity  x-velocity  y-velocity      energy           k       omega     time/iter
  4025  2.3351e-03  2.7662e-04  1.0626e-04  2.3037e-03  2.0329e-04  7.4602e-05  0:00:15  394
  4026  2.3346e-03  2.7395e-04  1.0527e-04  2.3031e-03  2.0147e-04  7.4229e-05  0:00:12  393
  4027  2.3336e-03  2.7183e-04  1.0436e-04  2.3021e-03  1.9966e-04  7.3863e-05  0:00:09  392
  4028  2.3323e-03  2.6968e-04  1.0310e-04  2.3007e-03  1.9784e-04  7.3502e-05  0:01:26  391
  4029  2.3305e-03  2.6739e-04  1.0180e-04  2.2988e-03  1.9600e-04  7.3159e-05  0:01:08  390
  4030  2.3283e-03  2.6539e-04  1.0083e-04  2.2965e-03  1.9413e-04  7.2830e-05  0:00:55  389
  4031  2.3257e-03  2.6494e-04  1.0003e-04  2.2939e-03  1.9223e-04  7.2515e-05  0:00:44  388
  4032  2.3226e-03  2.6314e-04  9.9034e-05  2.2907e-03  1.9032e-04  7.2239e-05  0:00:35  387
  4033  2.3190e-03  2.6118e-04  9.8334e-05  2.2870e-03  1.8839e-04  7.1981e-05  0:00:28  386
  4034  2.3152e-03  2.6134e-04  9.7911e-05  2.2831e-03  1.8645e-04  7.1721e-05  0:00:22  385
  4035  2.3109e-03  2.6222e-04  9.7935e-05  2.2788e-03  1.8451e-04  7.1474e-05  0:00:18  384

  iter  continuity  x-velocity  y-velocity      energy           k       omega     time/iter
  4036  2.3062e-03  2.6375e-04  9.7736e-05  2.2740e-03  1.8257e-04  7.1224e-05  0:00:14  383
  4037  2.3010e-03  2.6489e-04  9.7259e-05  2.2688e-03  1.8063e-04  7.0988e-05  0:01:28  382
  4038  2.2953e-03  2.6436e-04  9.6486e-05  2.2630e-03  1.7869e-04  7.0764e-05  0:01:10  381
  4039  2.2892e-03  2.6170e-04  9.5294e-05  2.2569e-03  1.7676e-04  7.0539e-05  0:00:56  380
  4040  2.2828e-03  2.5868e-04  9.4023e-05  2.2504e-03  1.7484e-04  7.0341e-05  0:00:45  379
  4041  2.2760e-03  2.5665e-04  9.3037e-05  2.2435e-03  1.7292e-04  7.0157e-05  0:00:36  378
  4042  2.2688e-03  2.5867e-04  9.2355e-05  2.2364e-03  1.7100e-04  7.0027e-05  0:00:28  377
  4043  2.2614e-03  2.5931e-04  9.1340e-05  2.2289e-03  1.6908e-04  6.9930e-05  0:00:23  376
  4044  2.2536e-03  2.6060e-04  9.0956e-05  2.2212e-03  1.6715e-04  6.9861e-05  0:00:18  375
  4045  2.2455e-03  2.6344e-04  9.0811e-05  2.2131e-03  1.6524e-04  6.9811e-05  0:00:14  374
  4046  2.2373e-03  2.6315e-04  9.0101e-05  2.2048e-03  1.6334e-04  6.9772e-05  0:00:11  373

  iter  continuity  x-velocity  y-velocity      energy           k       omega     time/iter
  4047  2.2287e-03  2.6332e-04  8.9488e-05  2.1962e-03  1.6143e-04  6.9704e-05  0:01:24  372
  4048  2.2197e-03  2.5702e-04  8.9021e-05  2.1873e-03  1.5951e-04  6.9637e-05  0:01:07  371
  4049  2.2105e-03  2.5086e-04  8.8661e-05  2.1780e-03  1.5759e-04  6.9546e-05  0:00:53  370
  4050  2.2011e-03  2.4701e-04  8.8335e-05  2.1686e-03  1.5569e-04  6.9450e-05  0:00:42  369
  4051  2.1916e-03  2.4484e-04  8.7880e-05  2.1591e-03  1.5380e-04  6.9349e-05  0:00:34  368
  4052  2.1819e-03  2.4291e-04  8.7251e-05  2.1492e-03  1.5194e-04  6.9256e-05  0:00:27  367
  4053  2.1718e-03  2.4292e-04  8.6643e-05  2.1392e-03  1.5009e-04  6.9177e-05  0:00:22  366
  4054  2.1616e-03  2.4491e-04  8.6557e-05  2.1289e-03  1.4828e-04  6.9113e-05  0:00:17  365
  4055  2.1512e-03  2.4745e-04  8.6792e-05  2.1185e-03  1.4653e-04  6.9075e-05  0:00:14  364
  4056  2.1406e-03  2.5052e-04  8.7285e-05  2.1079e-03  1.4479e-04  6.9040e-05  0:00:11  363
  4057  2.1298e-03  2.5265e-04  8.7272e-05  2.0970e-03  1.4309e-04  6.8995e-05  0:01:21  362

  iter  continuity  x-velocity  y-velocity      energy           k       omega     time/iter
  4058  2.1188e-03  2.5282e-04  8.6878e-05  2.0860e-03  1.4143e-04  6.8933e-05  0:01:05  361
  4059  2.1075e-03  2.5396e-04  8.6304e-05  2.0747e-03  1.3981e-04  6.8870e-05  0:00:52  360
  4060  2.0960e-03  2.5467e-04  8.5207e-05  2.0632e-03  1.3824e-04  6.8839e-05  0:00:41  359
  4061  2.0844e-03  2.5805e-04  8.4665e-05  2.0515e-03  1.3672e-04  6.8816e-05  0:00:33  358
  4062  2.0727e-03  2.6611e-04  8.4427e-05  2.0399e-03  1.3524e-04  6.8770e-05  0:00:26  357
  4063  2.0607e-03  2.7286e-04  8.3686e-05  2.0279e-03  1.3382e-04  6.8709e-05  0:00:21  356
  4064  2.0482e-03  2.6988e-04  8.3459e-05  2.0155e-03  1.3247e-04  6.8652e-05  0:00:17  355
  4065  2.0355e-03  2.6711e-04  8.3584e-05  2.0029e-03  1.3120e-04  6.8597e-05  0:00:13  354
  4066  2.0228e-03  2.6591e-04  8.3797e-05  1.9903e-03  1.3000e-04  6.8532e-05  0:00:11  353
  4067  2.0101e-03  2.7190e-04  8.4168e-05  1.9777e-03  1.2890e-04  6.8471e-05  0:00:08  352
  4068  1.9975e-03  2.7419e-04  8.4320e-05  1.9650e-03  1.2788e-04  6.8403e-05  0:01:17  351

  iter  continuity  x-velocity  y-velocity      energy           k       omega     time/iter
  4069  1.9846e-03  2.7397e-04  8.4342e-05  1.9521e-03  1.2692e-04  6.8321e-05  0:01:01  350
  4070  1.9716e-03  2.7691e-04  8.4491e-05  1.9390e-03  1.2602e-04  6.8214e-05  0:00:49  349
  4071  1.9584e-03  2.7698e-04  8.3797e-05  1.9257e-03  1.2520e-04  6.8092e-05  0:00:39  348
  4072  1.9445e-03  2.7129e-04  8.3459e-05  1.9118e-03  1.2442e-04  6.7970e-05  0:00:31  347
  4073  1.9306e-03  2.7009e-04  8.3221e-05  1.8978e-03  1.2372e-04  6.7866e-05  0:00:25  346
  4074  1.9167e-03  2.7787e-04  8.3419e-05  1.8840e-03  1.2308e-04  6.7779e-05  0:00:20  345
  4075  1.9022e-03  2.7233e-04  8.3456e-05  1.8694e-03  1.2249e-04  6.7697e-05  0:00:16  344
  4076  1.8875e-03  2.6737e-04  8.3500e-05  1.8548e-03  1.2199e-04  6.7637e-05  0:00:13  343
  4077  1.8726e-03  2.6319e-04  8.3661e-05  1.8400e-03  1.2155e-04  6.7559e-05  0:00:10  342
  4078  1.8576e-03  2.6409e-04  8.3812e-05  1.8251e-03  1.2117e-04  6.7462e-05  0:01:16  341
  4079  1.8426e-03  2.6428e-04  8.4234e-05  1.8101e-03  1.2085e-04  6.7368e-05  0:01:01  340

  iter  continuity  x-velocity  y-velocity      energy           k       omega     time/iter
  4080  1.8273e-03  2.5955e-04  8.5044e-05  1.7948e-03  1.2060e-04  6.7272e-05  0:00:48  339
  4081  1.8120e-03  2.6281e-04  8.6167e-05  1.7795e-03  1.2043e-04  6.7197e-05  0:00:39  338
  4082  1.7967e-03  2.6882e-04  8.7033e-05  1.7643e-03  1.2035e-04  6.7133e-05  0:00:31  337
  4083  1.7813e-03  2.7356e-04  8.8266e-05  1.7488e-03  1.2036e-04  6.7113e-05  0:00:25  336
  4084  1.7654e-03  2.7700e-04  8.9668e-05  1.7330e-03  1.2043e-04  6.7119e-05  0:00:20  335
  4085  1.7496e-03  2.8234e-04  9.0625e-05  1.7172e-03  1.2058e-04  6.7125e-05  0:00:16  334
  4086  1.7339e-03  2.9705e-04  9.1231e-05  1.7016e-03  1.2082e-04  6.7135e-05  0:00:12  333
  4087  1.7186e-03  3.1737e-04  9.2072e-05  1.6863e-03  1.2114e-04  6.7150e-05  0:00:10  332
  4088  1.7032e-03  3.3376e-04  9.2878e-05  1.6709e-03  1.2152e-04  6.7156e-05  0:01:14  331
  4089  1.6866e-03  3.3514e-04  9.3960e-05  1.6545e-03  1.2198e-04  6.7152e-05  0:00:59  330
  4090  1.6703e-03  3.3333e-04  9.5144e-05  1.6382e-03  1.2249e-04  6.7146e-05  0:00:47  329

  iter  continuity  x-velocity  y-velocity      energy           k       omega     time/iter
  4091  1.6534e-03  3.1621e-04  9.5926e-05  1.6213e-03  1.2310e-04  6.7158e-05  0:00:38  328
  4092  1.6369e-03  3.0443e-04  9.5362e-05  1.6047e-03  1.2383e-04  6.7193e-05  0:00:30  327
  4093  1.6207e-03  3.0497e-04  9.4275e-05  1.5884e-03  1.2467e-04  6.7224e-05  0:00:24  326
  4094  1.6050e-03  3.1454e-04  9.4023e-05  1.5726e-03  1.2561e-04  6.7248e-05  0:00:19  325
  4095  1.5892e-03  3.2263e-04  9.4148e-05  1.5568e-03  1.2664e-04  6.7285e-05  0:00:15  324
  4096  1.5738e-03  3.3255e-04  9.3760e-05  1.5413e-03  1.2774e-04  6.7317e-05  0:00:12  323
  4097  1.5563e-03  3.1869e-04  9.2811e-05  1.5239e-03  1.2891e-04  6.7345e-05  0:00:10  322
  4098  1.5392e-03  2.9917e-04  9.1391e-05  1.5069e-03  1.3015e-04  6.7364e-05  0:00:08  321
  4099  1.5222e-03  2.9364e-04  8.9920e-05  1.4900e-03  1.3140e-04  6.7321e-05  0:01:10  320
  4100  1.5057e-03  2.9520e-04  8.9031e-05  1.4736e-03  1.3266e-04  6.7235e-05  0:00:56  319
  4101  1.4885e-03  2.8428e-04  8.8934e-05  1.4564e-03  1.3390e-04  6.7114e-05  0:00:45  318

  iter  continuity  x-velocity  y-velocity      energy           k       omega     time/iter
  4102  1.4720e-03  2.8403e-04  8.9837e-05  1.4399e-03  1.3511e-04  6.6989e-05  0:00:36  317
  4103  1.4552e-03  2.7596e-04  9.1389e-05  1.4230e-03  1.3632e-04  6.6862e-05  0:00:28  316
  4104  1.4383e-03  2.7030e-04  9.2638e-05  1.4060e-03  1.3752e-04  6.6762e-05  0:00:23  315
  4105  1.4215e-03  2.6881e-04  9.3745e-05  1.3893e-03  1.3871e-04  6.6710e-05  0:00:18  314
  4106  1.4048e-03  2.6925e-04  9.4158e-05  1.3725e-03  1.3989e-04  6.6685e-05  0:00:14  313
  4107  1.3886e-03  2.7828e-04  9.4510e-05  1.3564e-03  1.4103e-04  6.6670e-05  0:00:11  312
  4108  1.3728e-03  2.9140e-04  9.5462e-05  1.3406e-03  1.4215e-04  6.6645e-05  0:01:11  311
  4109  1.3569e-03  2.9831e-04  9.6744e-05  1.3248e-03  1.4326e-04  6.6634e-05  0:00:57  310
  4110  1.3411e-03  3.0572e-04  9.8373e-05  1.3092e-03  1.4435e-04  6.6634e-05  0:00:45  309
  4111  1.3255e-03  3.1541e-04  9.9938e-05  1.2938e-03  1.4542e-04  6.6637e-05  0:00:36  308
  4112  1.3103e-03  3.2064e-04  1.0110e-04  1.2785e-03  1.4650e-04  6.6653e-05  0:00:29  307

  iter  continuity  x-velocity  y-velocity      energy           k       omega     time/iter
  4113  1.2955e-03  3.2114e-04  1.0257e-04  1.2636e-03  1.4754e-04  6.6660e-05  0:00:23  306
  4114  1.2813e-03  3.2853e-04  1.0439e-04  1.2490e-03  1.4856e-04  6.6660e-05  0:00:18  305
  4115  1.2657e-03  3.2511e-04  1.0478e-04  1.2332e-03  1.4958e-04  6.6664e-05  0:00:15  304
  4116  1.2515e-03  3.3370e-04  1.0471e-04  1.2188e-03  1.5059e-04  6.6657e-05  0:01:12  303
  4117  1.2375e-03  3.4456e-04  1.0389e-04  1.2048e-03  1.5159e-04  6.6672e-05  0:00:58  302
  4118  1.2235e-03  3.5007e-04  1.0496e-04  1.1908e-03  1.5258e-04  6.6693e-05  0:00:46  301
  4119  1.2100e-03  3.4866e-04  1.0659e-04  1.1771e-03  1.5358e-04  6.6747e-05  0:00:37  300
  4120  1.1958e-03  3.3755e-04  1.0846e-04  1.1630e-03  1.5457e-04  6.6880e-05  0:00:29  299
  4121  1.1833e-03  3.3647e-04  1.0925e-04  1.1505e-03  1.5555e-04  6.7018e-05  0:00:23  298
  4122  1.1709e-03  3.2781e-04  1.0878e-04  1.1382e-03  1.5653e-04  6.7186e-05  0:00:19  297
  4123  1.1595e-03  3.2785e-04  1.0835e-04  1.1267e-03  1.5750e-04  6.7342e-05  0:00:15  296

  iter  continuity  x-velocity  y-velocity      energy           k       omega     time/iter
  4124  1.1484e-03  3.2484e-04  1.0871e-04  1.1155e-03  1.5848e-04  6.7454e-05  0:00:12  295
  4125  1.1371e-03  3.1663e-04  1.0910e-04  1.1041e-03  1.5946e-04  6.7541e-05  0:00:09  294
  4126  1.1254e-03  2.9807e-04  1.0887e-04  1.0922e-03  1.6042e-04  6.7566e-05  0:01:06  293
  4127  1.1142e-03  2.8915e-04  1.0742e-04  1.0810e-03  1.6134e-04  6.7529e-05  0:00:53  292
  4128  1.1032e-03  2.8653e-04  1.0610e-04  1.0700e-03  1.6222e-04  6.7467e-05  0:00:42  291
  4129  1.0927e-03  2.8864e-04  1.0505e-04  1.0595e-03  1.6303e-04  6.7363e-05  0:00:33  290
  4130  1.0821e-03  2.8667e-04  1.0480e-04  1.0489e-03  1.6377e-04  6.7220e-05  0:00:27  289
  4131  1.0713e-03  2.8390e-04  1.0520e-04  1.0382e-03  1.6445e-04  6.7051e-05  0:00:21  288
  4132  1.0618e-03  2.9010e-04  1.0628e-04  1.0287e-03  1.6509e-04  6.6866e-05  0:00:17  287
  4133  1.0527e-03  2.9740e-04  1.0814e-04  1.0196e-03  1.6567e-04  6.6680e-05  0:00:14  286
  4134  1.0451e-03  3.1348e-04  1.1021e-04  1.0121e-03  1.6623e-04  6.6554e-05  0:00:11  285

  iter  continuity  x-velocity  y-velocity      energy           k       omega     time/iter
  4135  1.0384e-03  3.3829e-04  1.1200e-04  1.0055e-03  1.6680e-04  6.6485e-05  0:00:09  284
  4136  1.0326e-03  3.6219e-04  1.1220e-04  9.9992e-04  1.6735e-04  6.6473e-05  0:00:07  283
  4137  1.0277e-03  3.8078e-04  1.1508e-04  9.9497e-04  1.6792e-04  6.6520e-05  0:01:02  282
  4138  1.0231e-03  3.9679e-04  1.1602e-04  9.9030e-04  1.6854e-04  6.6634e-05  0:00:49  281
  4139  1.0184e-03  4.0605e-04  1.1847e-04  9.8521e-04  1.6918e-04  6.6735e-05  0:00:39  280
  4140  1.0152e-03  4.1838e-04  1.1834e-04  9.8141e-04  1.6985e-04  6.6904e-05  0:00:31  279
  4141  1.0128e-03  4.4213e-04  1.1738e-04  9.7871e-04  1.7047e-04  6.7086e-05  0:00:25  278
  4142  1.0087e-03  4.3701e-04  1.1625e-04  9.7408e-04  1.7104e-04  6.7251e-05  0:00:20  277
  4143  1.0037e-03  4.1897e-04  1.1490e-04  9.6849e-04  1.7157e-04  6.7373e-05  0:00:16  276
  4144  9.9457e-04  3.8979e-04  1.1299e-04  9.5951e-04  1.7210e-04  6.7481e-05  0:00:13  275
! 4144 solution is converged

> /plot/plot yes loading.txt yes no no absolute-pressure yes 1 0 upper-blade ()

> exit 
Posting ANSYS Product Improvement Program performance data 
Done.
yes
