
              Welcome to ANSYS Fluent 2021 R2

              Copyright 1987-2021 ANSYS, Inc. All Rights Reserved.
              Unauthorized use, distribution or duplication is prohibited.
              This product is subject to U.S. laws governing export and re-export.
              For full Legal Notice, see documentation.

Build Time: May 28 2021 13:54:56 EDT  Build Id: 10201  
 

     --------------------------------------------------------------
     This is an academic version of ANSYS FLUENT. Usage of this product
     license is limited to the terms and conditions specified in your ANSYS
     license form, additional terms section.
     --------------------------------------------------------------
Host spawning Node 0 on machine "WL-CH-009" (win64).

-------------------------------------------------------------------------------
ID    Hostname   Core   O.S.         PID    Vendor                       
-------------------------------------------------------------------------------
n31   WL-CH-009  32/36  Windows-x64  43924  Intel(R) Xeon(R) W-2295      
n30   WL-CH-009  31/36  Windows-x64  41504  Intel(R) Xeon(R) W-2295      
n29   WL-CH-009  30/36  Windows-x64  23932  Intel(R) Xeon(R) W-2295      
n28   WL-CH-009  29/36  Windows-x64  28168  Intel(R) Xeon(R) W-2295      
n27   WL-CH-009  28/36  Windows-x64  19656  Intel(R) Xeon(R) W-2295      
n26   WL-CH-009  27/36  Windows-x64  28816  Intel(R) Xeon(R) W-2295      
n25   WL-CH-009  26/36  Windows-x64  27176  Intel(R) Xeon(R) W-2295      
n24   WL-CH-009  25/36  Windows-x64  19324  Intel(R) Xeon(R) W-2295      
n23   WL-CH-009  24/36  Windows-x64  17960  Intel(R) Xeon(R) W-2295      
n22   WL-CH-009  23/36  Windows-x64  15812  Intel(R) Xeon(R) W-2295      
n21   WL-CH-009  22/36  Windows-x64  16332  Intel(R) Xeon(R) W-2295      
n20   WL-CH-009  21/36  Windows-x64  27872  Intel(R) Xeon(R) W-2295      
n19   WL-CH-009  20/36  Windows-x64  37616  Intel(R) Xeon(R) W-2295      
n18   WL-CH-009  19/36  Windows-x64  21392  Intel(R) Xeon(R) W-2295      
n17   WL-CH-009  18/36  Windows-x64  39044  Intel(R) Xeon(R) W-2295      
n16   WL-CH-009  17/36  Windows-x64  20860  Intel(R) Xeon(R) W-2295      
n15   WL-CH-009  16/36  Windows-x64  32240  Intel(R) Xeon(R) W-2295      
n14   WL-CH-009  15/36  Windows-x64  15972  Intel(R) Xeon(R) W-2295      
n13   WL-CH-009  14/36  Windows-x64  23456  Intel(R) Xeon(R) W-2295      
n12   WL-CH-009  13/36  Windows-x64  45128  Intel(R) Xeon(R) W-2295      
-------------------------------------------------------------------------------
ID    Hostname   Core   O.S.         PID    Vendor                       
-------------------------------------------------------------------------------
n11   WL-CH-009  12/36  Windows-x64  36536  Intel(R) Xeon(R) W-2295      
n10   WL-CH-009  11/36  Windows-x64  35544  Intel(R) Xeon(R) W-2295      
n9    WL-CH-009  10/36  Windows-x64  31268  Intel(R) Xeon(R) W-2295      
n8    WL-CH-009  9/36   Windows-x64  20468  Intel(R) Xeon(R) W-2295      
n7    WL-CH-009  8/36   Windows-x64  37004  Intel(R) Xeon(R) W-2295      
n6    WL-CH-009  7/36   Windows-x64  44872  Intel(R) Xeon(R) W-2295      
n5    WL-CH-009  6/36   Windows-x64  15580  Intel(R) Xeon(R) W-2295      
n4    WL-CH-009  5/36   Windows-x64  8688   Intel(R) Xeon(R) W-2295      
n3    WL-CH-009  4/36   Windows-x64  18728  Intel(R) Xeon(R) W-2295      
n2    WL-CH-009  3/36   Windows-x64  31500  Intel(R) Xeon(R) W-2295      
n1    WL-CH-009  2/36   Windows-x64  36272  Intel(R) Xeon(R) W-2295      
n0*   WL-CH-009  1/36   Windows-x64  4180   Intel(R) Xeon(R) W-2295      
host  WL-CH-009         Windows-x64  36204  Intel(R) Xeon(R) W-2295      

MPI Option Selected: intel
Selected system interconnect: default
-------------------------------------------------------------------------------

Cleanup script file is E:\\MATLAB\\RANS_optimisation\\cleanup-fluent-WL-CH-009-36204.bat

Posting ANSYS Product Improvement Program startup data
Done.

Reading journal file E:\MATLAB\RANS_optimisation\run3\fluent_input.jou...

> /sync-chdir E:\MATLAB\RANS_optimisation\run3

> /file/read-case "grid.msh"
Reading "grid.msh"...

Buffering for file scan...

  112722 quadrilateral cells, zone  9.
  224998 2D interior faces, zone  2.
Warning: Reversing 238 faces, zone  2.
     237 2D pressure-inlet faces, zone  3.
Warning: Reversing 237 faces, zone  3.
     477 2D pressure-outlet faces, zone  4.
Warning: Reversing 477 faces, zone  4.
     477 2D pressure-outlet faces, zone  5.
     207 2D pressure-outlet faces, zone  6.
     254 2D wall faces, zone  7.
Warning: Reversing 14 faces, zone  7.
     252 2D wall faces, zone  8.
Warning: Reversing 224 faces, zone  8.
  113674 nodes.

Building...
     mesh
	auto partitioning mesh by Metis (fast),
	distributing mesh
		parts................................,
		faces................................,
		nodes................................,
		cells................................,
        bandwidth reduction using Reverse Cuthill-McKee: 2716/83 = 32.7229
     materials,
     interface,
     domains,
     zones,
	fluid-9
	wall-8
	wall-7
	pressure-outlet-6
	pressure-outlet-5
	pressure-outlet-4
	pressure-inlet-3
	interior-2
     parallel,
Done.

Preparing mesh for display...
Done.
 

> /define/boundary-conditions/modify-zones/zone-name 3 inlet 

> /define/boundary-conditions/modify-zones/zone-name 4 upper 

> /define/boundary-conditions/modify-zones/zone-name 5 lower 

> /define/boundary-conditions/modify-zones/zone-name 6 outlet

> /define/boundary-conditions/modify-zones/zone-name 7 upper-blade

> /define/boundary-conditions/modify-zones/zone-name 8 lower-blade

> /define/materials/change-create air air air is a fluid
yes 
Density
ideal-gas no data required.

yes 
Cp (Specific Heat)
constant 1005 
yes 
Thermal Conductivity
expression "DynamicViscosity*1005 [J/(kg K)]/0.72"
 yes 
Viscosity
sutherland three-coefficient-method 5.83247e-04 273 110.4 
no no no

Note: Enabling energy equation as required by material density method.

> /define/operating-conditions/operating-pressure 0

> /define/models/viscous/kw-sst? yes

> /define/boundary-conditions/zone-type inlet pressure-inlet 

> /define/boundary-conditions/pressure-inlet (inlet)
inlet yes no 74575.2 no 46984 no 300 no yes no no yes 0.5 1

> /define/boundary-conditions/zone-type outlet pressure-outlet 

> /define/boundary-conditions/bc-settings/pressure-outlet 0. 65 

> /define/boundary-conditions/pressure-outlet (outlet upper lower)
outlet yes no 46984 no 300 no yes no no yes 0.5 1 yes no no

> /define/boundary-conditions/copy-bc outlet (upper lower)Copy outlet boundary conditions to lower
Copy outlet boundary conditions to upper


> /define/boundary-conditions/wall (upper-blade lower-blade)
upper-blade 0 no 0 no no no 0 no no no no 0 no 0.5 no 1

> /define/boundary-conditions/copy-bc upper-blade (lower-blade)Copy upper-blade boundary conditions to lower-blade


> /define/models/solver/densit-based-implicit yes

> ;/file/read-data E:\MATLAB\RANS_optimisation\clean.dat
;/solve/initialize/initialize-flow
;/solve/initialize/compute-defaults/pressure-inlet inlet
;/solve/initialize/initialize-flow yes
;/solve/initialize/hyb-initialization
/solve/iterate 1000

 absolute pressure limited to 1.000000e+00 in 112722 cells on zone 9 

  iter  continuity  x-velocity  y-velocity      energy           k       omega     time/iter

 absolute pressure limited to 1.000000e+00 in 39531 cells on zone 9 
     1  0.0000e+00  1.0000e+00  1.0000e+00  1.0000e+00  9.5287e-02  9.5603e+08  0:00:00  999

 Reversed flow on 476 faces (99.5% area) of pressure-outlet 4.

 Reversed flow on 476 faces (99.5% area) of pressure-outlet 5.

 Reversed flow on 207 faces (100.0% area) of pressure-outlet 6.

Divergence detected - temporarily reducing Courant number to 0.5
 and trying again...

Divergence detected - temporarily reducing Courant number to 0.05
 and trying again...

 time step reduced in 13 cells due to excessive temperature change

 absolute pressure limited to 1.000000e+00 in 7003 cells on zone 9 

 temperature limited to 5.000000e+03 in 1417 cells on zone 9 
     2  1.0000e+00  1.0000e+00  1.0000e+00  1.0000e+00  1.8311e+04  2.2658e-02  0:16:38  998

 Reversed flow on 75 faces (15.5% area) of pressure-inlet 3.

 Reversed flow on 476 faces (99.5% area) of pressure-outlet 4.

 Reversed flow on 476 faces (99.5% area) of pressure-outlet 5.

 Reversed flow on 207 faces (100.0% area) of pressure-outlet 6.

 time step reduced in 11 cells due to excessive temperature change

 absolute pressure limited to 1.000000e+00 in 1533 cells on zone 9 

 temperature limited to 5.000000e+03 in 3590 cells on zone 9 
     3  1.0000e+00  1.0000e+00  1.0000e+00  1.0000e+00  1.2085e+00  2.1148e-02  0:13:18  997

 Reversed flow on 75 faces (15.5% area) of pressure-inlet 3.

 Reversed flow on 476 faces (99.5% area) of pressure-outlet 4.

 Reversed flow on 476 faces (99.5% area) of pressure-outlet 5.

 Reversed flow on 207 faces (100.0% area) of pressure-outlet 6.

 time step reduced in 153 cells due to excessive temperature change

 absolute pressure limited to 1.000000e+00 in 537 cells on zone 9 

 temperature limited to 5.000000e+03 in 3709 cells on zone 9 
     4  1.0000e+00  1.0000e+00  1.0000e+00  1.0000e+00  6.2940e-01  5.3531e-01  0:13:57  996

 Reversed flow on 75 faces (15.5% area) of pressure-inlet 3.

 Reversed flow on 476 faces (99.5% area) of pressure-outlet 4.

 Reversed flow on 476 faces (99.5% area) of pressure-outlet 5.

 Reversed flow on 207 faces (100.0% area) of pressure-outlet 6.

 time step reduced in 448 cells due to excessive temperature change

 absolute pressure limited to 1.000000e+00 in 437 cells on zone 9 

 temperature limited to 5.000000e+03 in 3578 cells on zone 9 
     5  1.0000e+00  1.0000e+00  1.0000e+00  1.0000e+00  4.2895e-01  6.4504e+00  0:11:09  995

 Reversed flow on 75 faces (15.5% area) of pressure-inlet 3.

 Reversed flow on 476 faces (99.5% area) of pressure-outlet 4.

 Reversed flow on 476 faces (99.5% area) of pressure-outlet 5.

 Reversed flow on 207 faces (100.0% area) of pressure-outlet 6.

 time step reduced in 654 cells due to excessive temperature change

 absolute pressure limited to 1.000000e+00 in 388 cells on zone 9 

 temperature limited to 5.000000e+03 in 3607 cells on zone 9 

Error: < (less-than): invalid argument [1]: wrong type [not a number]
Error Object: inf.

> 
> (cx-gui-do cx-set-list-tree-selections "NavigationPane*List_Tree1" (list "Solution|Initialization"))
(cx-gui-do cx-set-list-tree-selections "NavigationPane*List_Tree1" (list "Solution|Initialization"))
(cx-gui-do cx-activate-item "NavigationPane*List_Tree1")
(cx-gui-do cx-set-list-tree-selections "NavigationPane*List_Tree1" (list "Solution|Initialization"))
(cx-gui-do cx-set-list-selections "Solution Initialization*Table1*DropDownList1(Compute from)" '( 2))
(cx-gui-do cx-activate-item "Solution Initialization*Table1*DropDownList1(Compute from)")
(cx-gui-do cx-activate-item "Solution Initialization*Table1*Frame9*PushButton1(Initialize)")
(cx-gui-do cx-activate-item "Question*OK")
(cx-gui-do cx-set-list-tree-selections "NavigationPane*List_Tree1" (list "Solution|Run Calculation"))
(cx-gui-do cx-set-list-tree-selections "NavigationPane*List_Tree1" (list "Solution|Run Calculation"))
(cx-gui-do cx-activate-item "NavigationPane*List_Tree1")
(cx-gui-do cx-set-list-tree-selections "NavigationPane*List_Tree1" (list "Solution|Run Calculation"))
(cx-gui-do cx-set-integer-entry "Run Calculation*Table1*Table3(Parameters)*Table1*Table1*IntegerEntry1(Number of Iterations)" 1000)
(cx-gui-do cx-activate-item "Run Calculation*Table1*Table3(Parameters)*Table1*Table1*IntegerEntry1(Number of Iterations)")
(cx-gui-do cx-activate-item "Run Calculation*Table1*Table6(Solution Advancement)*Table1*PushButton1(Calculate)")


  iter  continuity  x-velocity  y-velocity      energy           k       omega     time/iter

 Reversed flow on 2 faces (1.0% area) of pressure-outlet 4.

 Reversed flow on 2 faces (1.0% area) of pressure-outlet 5.
     1  1.0000e+00  1.0000e+00  1.0000e+00  1.0000e+00  1.8090e-01  1.1634e-01  0:07:10  999

 Reversed flow on 2 faces (1.0% area) of pressure-outlet 4.

 Reversed flow on 2 faces (1.0% area) of pressure-outlet 5.
     2  7.8444e-01  8.1486e-01  6.5516e-01  9.3008e-01  1.4587e-01  9.6280e-02  0:05:43  998

 Reversed flow on 2 faces (1.0% area) of pressure-outlet 4.

 Reversed flow on 2 faces (1.0% area) of pressure-outlet 5.
     3  5.7202e-01  8.3913e-01  5.3553e-01  7.3939e-01  1.2670e-01  8.2550e-02  0:07:54  997

 Reversed flow on 2 faces (1.0% area) of pressure-outlet 4.

 Reversed flow on 2 faces (1.0% area) of pressure-outlet 5.
     4  3.6737e-01  4.4813e-01  3.5299e-01  4.3339e-01  1.0822e-01  7.2319e-02  0:06:19  996

 Reversed flow on 2 faces (1.0% area) of pressure-outlet 4.

 Reversed flow on 2 faces (1.0% area) of pressure-outlet 5.
     5  3.0051e-01  2.8574e-01  2.5349e-01  3.4891e-01  8.7419e-02  6.4234e-02  0:05:03  995

 Reversed flow on 2 faces (1.0% area) of pressure-outlet 4.

 Reversed flow on 2 faces (1.0% area) of pressure-outlet 5.
     6  2.4323e-01  2.0868e-01  1.9863e-01  2.8782e-01  6.5525e-02  5.7653e-02  0:04:02  994

 Reversed flow on 2 faces (1.0% area) of pressure-outlet 4.

 Reversed flow on 2 faces (1.0% area) of pressure-outlet 5.
     7  2.1381e-01  1.7136e-01  1.6555e-01  2.5284e-01  5.5847e-02  5.2195e-02  0:03:13  993

 Reversed flow on 2 faces (1.0% area) of pressure-outlet 4.

 Reversed flow on 2 faces (1.0% area) of pressure-outlet 5.
     8  1.7397e-01  1.3995e-01  1.3824e-01  2.0457e-01  5.6572e-02  4.7607e-02  0:02:34  992

 Reversed flow on 2 faces (1.0% area) of pressure-outlet 4.

 Reversed flow on 2 faces (1.0% area) of pressure-outlet 5.
     9  1.4592e-01  1.1034e-01  1.1550e-01  1.6435e-01  6.3551e-02  4.3700e-02  0:02:03  991

 Reversed flow on 2 faces (1.0% area) of pressure-outlet 4.

 Reversed flow on 2 faces (1.0% area) of pressure-outlet 5.
    10  1.3029e-01  9.9480e-02  9.9737e-02  1.4644e-01  7.0724e-02  4.0419e-02  0:01:39  990

 Reversed flow on 2 faces (1.0% area) of pressure-outlet 4.

 Reversed flow on 2 faces (1.0% area) of pressure-outlet 5.
    11  1.1528e-01  8.6596e-02  8.6971e-02  1.3110e-01  7.5156e-02  3.7649e-02  0:01:19  989

 Reversed flow on 2 faces (1.0% area) of pressure-outlet 4.

 Reversed flow on 2 faces (1.0% area) of pressure-outlet 5.

  iter  continuity  x-velocity  y-velocity      energy           k       omega     time/iter
    12  1.0166e-01  7.2043e-02  7.5908e-02  1.1585e-01  7.6252e-02  3.5242e-02  0:01:03  988

 Reversed flow on 2 faces (1.0% area) of pressure-outlet 4.

 Reversed flow on 2 faces (1.0% area) of pressure-outlet 5.
    13  9.2134e-02  6.0053e-02  6.6593e-02  1.0553e-01  7.4176e-02  3.3131e-02  0:04:08  987

 Reversed flow on 2 faces (1.0% area) of pressure-outlet 4.

 Reversed flow on 2 faces (1.0% area) of pressure-outlet 5.
    14  8.5033e-02  5.1049e-02  5.8641e-02  9.8463e-02  6.9527e-02  3.1254e-02  0:03:18  986

 Reversed flow on 2 faces (1.0% area) of pressure-outlet 4.

 Reversed flow on 2 faces (1.0% area) of pressure-outlet 5.
    15  7.9939e-02  4.4513e-02  5.2119e-02  9.4151e-02  6.3191e-02  2.9559e-02  0:02:38  985

 Reversed flow on 2 faces (1.0% area) of pressure-outlet 4.

 Reversed flow on 2 faces (1.0% area) of pressure-outlet 5.
    16  7.5918e-02  3.9485e-02  4.6901e-02  9.1275e-02  5.6104e-02  2.8008e-02  0:02:06  984

 Reversed flow on 2 faces (1.0% area) of pressure-outlet 4.

 Reversed flow on 2 faces (1.0% area) of pressure-outlet 5.
    17  7.2751e-02  3.5883e-02  4.2773e-02  8.9240e-02  4.9025e-02  2.6587e-02  0:01:41  983

 Reversed flow on 2 faces (1.0% area) of pressure-outlet 4.

 Reversed flow on 2 faces (1.0% area) of pressure-outlet 5.
    18  7.0056e-02  3.3327e-02  3.9962e-02  8.7423e-02  4.2648e-02  2.5284e-02  0:01:21  982

 Reversed flow on 2 faces (1.0% area) of pressure-outlet 4.

 Reversed flow on 2 faces (1.0% area) of pressure-outlet 5.
    19  6.7533e-02  3.1810e-02  3.8013e-02  8.5509e-02  3.7281e-02  2.4078e-02  0:01:05  981

 Reversed flow on 2 faces (1.0% area) of pressure-outlet 4.

 Reversed flow on 2 faces (1.0% area) of pressure-outlet 5.
    20  6.5417e-02  3.1572e-02  3.6440e-02  8.3588e-02  3.3004e-02  2.2961e-02  0:00:52  980

 Reversed flow on 2 faces (1.0% area) of pressure-outlet 4.

 Reversed flow on 2 faces (1.0% area) of pressure-outlet 5.
    21  6.3359e-02  3.1499e-02  3.5260e-02  8.1328e-02  2.9745e-02  2.1922e-02  0:00:41  979

 Reversed flow on 2 faces (1.0% area) of pressure-outlet 4.

 Reversed flow on 2 faces (1.0% area) of pressure-outlet 5.
    22  6.0906e-02  3.1371e-02  3.4197e-02  7.8464e-02  2.7275e-02  2.0965e-02  0:00:33  978

 Reversed flow on 2 faces (1.0% area) of pressure-outlet 4.

 Reversed flow on 2 faces (1.0% area) of pressure-outlet 5.

  iter  continuity  x-velocity  y-velocity      energy           k       omega     time/iter
    23  5.8502e-02  3.1697e-02  3.3232e-02  7.5420e-02  2.5415e-02  2.0071e-02  0:03:42  977

 Reversed flow on 2 faces (1.0% area) of pressure-outlet 4.

 Reversed flow on 2 faces (1.0% area) of pressure-outlet 5.
    24  5.6236e-02  3.1850e-02  3.1982e-02  7.2337e-02  2.4015e-02  1.9238e-02  0:02:57  976

 Reversed flow on 2 faces (1.0% area) of pressure-outlet 4.

 Reversed flow on 2 faces (1.0% area) of pressure-outlet 5.
    25  5.4178e-02  3.1909e-02  3.1045e-02  6.9391e-02  2.2957e-02  1.8478e-02  0:02:22  975

 Reversed flow on 2 faces (1.0% area) of pressure-outlet 4.

 Reversed flow on 2 faces (1.0% area) of pressure-outlet 5.
    26  5.2140e-02  3.2030e-02  3.0172e-02  6.6523e-02  2.2125e-02  1.7776e-02  0:01:53  974

 Reversed flow on 2 faces (1.0% area) of pressure-outlet 4.

 Reversed flow on 2 faces (1.0% area) of pressure-outlet 5.
    27  5.0418e-02  3.2053e-02  2.9111e-02  6.4012e-02  2.1439e-02  1.7132e-02  0:01:30  973

 Reversed flow on 2 faces (1.0% area) of pressure-outlet 4.

 Reversed flow on 2 faces (1.0% area) of pressure-outlet 5.
    28  4.8944e-02  3.2088e-02  2.7898e-02  6.1811e-02  2.0844e-02  1.6551e-02  0:01:12  972

 Reversed flow on 2 faces (1.0% area) of pressure-outlet 4.

 Reversed flow on 2 faces (1.0% area) of pressure-outlet 5.
    29  4.7532e-02  3.1877e-02  2.6817e-02  5.9788e-02  2.0309e-02  1.6026e-02  0:00:58  971

 Reversed flow on 2 faces (1.0% area) of pressure-outlet 4.

 Reversed flow on 2 faces (1.0% area) of pressure-outlet 5.
    30  4.6110e-02  3.1423e-02  2.6129e-02  5.7929e-02  1.9817e-02  1.5542e-02  0:00:46  970

 Reversed flow on 2 faces (1.0% area) of pressure-outlet 4.

 Reversed flow on 2 faces (1.0% area) of pressure-outlet 5.
    31  4.4874e-02  3.0806e-02  2.5514e-02  5.6334e-02  1.9377e-02  1.5104e-02  0:00:37  969

 Reversed flow on 2 faces (1.0% area) of pressure-outlet 4.

 Reversed flow on 2 faces (1.0% area) of pressure-outlet 5.
    32  4.3886e-02  3.0449e-02  2.4971e-02  5.4978e-02  1.8973e-02  1.4715e-02  0:00:29  968

 Reversed flow on 2 faces (1.0% area) of pressure-outlet 4.

 Reversed flow on 2 faces (1.0% area) of pressure-outlet 5.
    33  4.3054e-02  3.0144e-02  2.4094e-02  5.3688e-02  1.8617e-02  1.4368e-02  0:03:37  967

 Reversed flow on 2 faces (1.0% area) of pressure-outlet 4.

 Reversed flow on 2 faces (1.0% area) of pressure-outlet 5.

  iter  continuity  x-velocity  y-velocity      energy           k       omega     time/iter
    34  4.2101e-02  2.9669e-02  2.3445e-02  5.2268e-02  1.8279e-02  1.4046e-02  0:02:53  966

 Reversed flow on 2 faces (1.0% area) of pressure-outlet 4.

 Reversed flow on 2 faces (1.0% area) of pressure-outlet 5.
    35  4.1196e-02  2.9112e-02  2.2829e-02  5.0856e-02  1.7945e-02  1.3739e-02  0:02:19  965

 Reversed flow on 2 faces (1.0% area) of pressure-outlet 4.

 Reversed flow on 2 faces (1.0% area) of pressure-outlet 5.
    36  4.0197e-02  2.8536e-02  2.2257e-02  4.9322e-02  1.7623e-02  1.3448e-02  0:01:51  964

 Reversed flow on 2 faces (1.0% area) of pressure-outlet 4.

 Reversed flow on 2 faces (1.0% area) of pressure-outlet 5.
    37  3.9071e-02  2.8122e-02  2.1427e-02  4.7602e-02  1.7333e-02  1.3178e-02  0:01:29  963

 Reversed flow on 2 faces (1.0% area) of pressure-outlet 4.

 Reversed flow on 2 faces (1.0% area) of pressure-outlet 5.
    38  3.8076e-02  2.7734e-02  2.0693e-02  4.5908e-02  1.7068e-02  1.2919e-02  0:01:11  962

 Reversed flow on 2 faces (1.0% area) of pressure-outlet 4.

 Reversed flow on 2 faces (1.0% area) of pressure-outlet 5.
    39  3.7074e-02  2.7299e-02  1.9928e-02  4.4188e-02  1.6818e-02  1.2669e-02  0:00:57  961

 Reversed flow on 2 faces (1.0% area) of pressure-outlet 4.

 Reversed flow on 2 faces (1.0% area) of pressure-outlet 5.
    40  3.6078e-02  2.6743e-02  1.9330e-02  4.2461e-02  1.6577e-02  1.2406e-02  0:00:45  960

 Reversed flow on 2 faces (1.0% area) of pressure-outlet 4.

 Reversed flow on 2 faces (1.0% area) of pressure-outlet 5.
    41  3.5098e-02  2.6299e-02  1.8705e-02  4.0777e-02  1.6356e-02  1.2151e-02  0:00:36  959

 Reversed flow on 2 faces (1.0% area) of pressure-outlet 4.

 Reversed flow on 2 faces (1.0% area) of pressure-outlet 5.
    42  3.4414e-02  2.6168e-02  1.7907e-02  3.9377e-02  1.6166e-02  1.1910e-02  0:00:29  958

 Reversed flow on 2 faces (1.0% area) of pressure-outlet 4.

 Reversed flow on 2 faces (1.0% area) of pressure-outlet 5.
    43  3.4146e-02  2.6121e-02  1.7372e-02  3.8373e-02  1.6011e-02  1.1683e-02  0:03:34  957

 Reversed flow on 2 faces (1.0% area) of pressure-outlet 4.

 Reversed flow on 2 faces (1.0% area) of pressure-outlet 5.
    44  3.3883e-02  2.5728e-02  1.6715e-02  3.7469e-02  1.5887e-02  1.1472e-02  0:02:51  956

 Reversed flow on 2 faces (1.0% area) of pressure-outlet 4.

 Reversed flow on 2 faces (1.0% area) of pressure-outlet 5.

  iter  continuity  x-velocity  y-velocity      energy           k       omega     time/iter
    45  3.3616e-02  2.5343e-02  1.6269e-02  3.6635e-02  1.5792e-02  1.1275e-02  0:02:17  955

 Reversed flow on 2 faces (1.0% area) of pressure-outlet 4.

 Reversed flow on 2 faces (1.0% area) of pressure-outlet 5.
    46  3.3304e-02  2.5075e-02  1.5880e-02  3.5811e-02  1.5728e-02  1.1095e-02  0:01:49  954

 Reversed flow on 2 faces (1.0% area) of pressure-outlet 4.

 Reversed flow on 2 faces (1.0% area) of pressure-outlet 5.
    47  3.2921e-02  2.4903e-02  1.5564e-02  3.4941e-02  1.5701e-02  1.0922e-02  0:01:27  953

 Reversed flow on 2 faces (1.0% area) of pressure-outlet 4.

 Reversed flow on 2 faces (1.0% area) of pressure-outlet 5.
    48  3.2567e-02  2.4857e-02  1.4985e-02  3.4089e-02  1.5754e-02  1.0752e-02  0:01:10  952

 Reversed flow on 2 faces (1.0% area) of pressure-outlet 4.

 Reversed flow on 2 faces (1.0% area) of pressure-outlet 5.
    49  3.2148e-02  2.4600e-02  1.4405e-02  3.3233e-02  1.5954e-02  1.0603e-02  0:00:56  951

 Reversed flow on 2 faces (1.0% area) of pressure-outlet 4.

 Reversed flow on 2 faces (1.0% area) of pressure-outlet 5.
    50  3.1643e-02  2.4289e-02  1.4011e-02  3.2349e-02  1.6160e-02  1.0457e-02  0:00:45  950

 Reversed flow on 2 faces (1.0% area) of pressure-outlet 4.

 Reversed flow on 2 faces (1.0% area) of pressure-outlet 5.
    51  3.1202e-02  2.3942e-02  1.3782e-02  3.1589e-02  1.6331e-02  1.0299e-02  0:00:36  949

 Reversed flow on 2 faces (1.0% area) of pressure-outlet 4.

 Reversed flow on 2 faces (1.0% area) of pressure-outlet 5.
    52  3.0808e-02  2.3600e-02  1.3648e-02  3.0900e-02  1.6445e-02  1.0134e-02  0:00:29  948

 Reversed flow on 2 faces (1.0% area) of pressure-outlet 4.

 Reversed flow on 2 faces (1.0% area) of pressure-outlet 5.
    53  3.0485e-02  2.3340e-02  1.3409e-02  3.0284e-02  1.6526e-02  9.9644e-03  0:03:32  947

 Reversed flow on 2 faces (1.0% area) of pressure-outlet 4.

 Reversed flow on 2 faces (1.0% area) of pressure-outlet 5.
    54  3.0042e-02  2.3068e-02  1.2882e-02  2.9581e-02  1.6623e-02  9.8115e-03  0:02:50  946

 Reversed flow on 2 faces (1.0% area) of pressure-outlet 4.

 Reversed flow on 2 faces (1.0% area) of pressure-outlet 5.
    55  2.9486e-02  2.2699e-02  1.2503e-02  2.8822e-02  1.6800e-02  9.6806e-03  0:02:16  945

 Reversed flow on 2 faces (1.0% area) of pressure-outlet 4.

 Reversed flow on 2 faces (1.0% area) of pressure-outlet 5.

  iter  continuity  x-velocity  y-velocity      energy           k       omega     time/iter
    56  2.8828e-02  2.2196e-02  1.2321e-02  2.8011e-02  1.7234e-02  9.5528e-03  0:01:48  944

 Reversed flow on 2 faces (1.0% area) of pressure-outlet 4.

 Reversed flow on 2 faces (1.0% area) of pressure-outlet 5.
    57  2.8176e-02  2.1651e-02  1.2198e-02  2.7196e-02  1.7903e-02  9.4143e-03  0:01:27  943

 Reversed flow on 2 faces (1.0% area) of pressure-outlet 4.

 Reversed flow on 2 faces (1.0% area) of pressure-outlet 5.
    58  2.7612e-02  2.1100e-02  1.2028e-02  2.6458e-02  1.8518e-02  9.2762e-03  0:01:09  942

 Reversed flow on 2 faces (1.0% area) of pressure-outlet 4.

 Reversed flow on 2 faces (1.0% area) of pressure-outlet 5.
    59  2.7058e-02  2.0584e-02  1.1733e-02  2.5750e-02  1.8935e-02  9.1283e-03  0:00:55  941

 Reversed flow on 2 faces (1.0% area) of pressure-outlet 4.

 Reversed flow on 2 faces (1.0% area) of pressure-outlet 5.
    60  2.6386e-02  2.0037e-02  1.1343e-02  2.4960e-02  1.9241e-02  8.9893e-03  0:03:52  940

 Reversed flow on 2 faces (1.0% area) of pressure-outlet 4.

 Reversed flow on 2 faces (1.0% area) of pressure-outlet 5.
    61  2.5709e-02  1.9544e-02  1.0922e-02  2.4203e-02  1.9526e-02  8.8599e-03  0:03:06  939

 Reversed flow on 2 faces (1.0% area) of pressure-outlet 4.

 Reversed flow on 2 faces (1.0% area) of pressure-outlet 5.
    62  2.5079e-02  1.8995e-02  1.0695e-02  2.3509e-02  1.9810e-02  8.7407e-03  0:02:28  938

 Reversed flow on 2 faces (1.0% area) of pressure-outlet 4.

 Reversed flow on 2 faces (1.0% area) of pressure-outlet 5.
    63  2.4557e-02  1.8419e-02  1.0551e-02  2.2937e-02  2.0126e-02  8.6338e-03  0:01:58  937

 Reversed flow on 2 faces (1.0% area) of pressure-outlet 4.

 Reversed flow on 2 faces (1.0% area) of pressure-outlet 5.
    64  2.4153e-02  1.7923e-02  1.0267e-02  2.2481e-02  2.0429e-02  8.5308e-03  0:01:35  936

 Reversed flow on 2 faces (1.0% area) of pressure-outlet 4.

 Reversed flow on 2 faces (1.0% area) of pressure-outlet 5.
    65  2.3735e-02  1.7480e-02  9.9619e-03  2.2030e-02  2.0719e-02  8.4396e-03  0:01:16  935

 Reversed flow on 2 faces (1.0% area) of pressure-outlet 4.

 Reversed flow on 2 faces (1.0% area) of pressure-outlet 5.
    66  2.3264e-02  1.7077e-02  9.6634e-03  2.1549e-02  2.1016e-02  8.3466e-03  0:01:00  934

 Reversed flow on 2 faces (1.0% area) of pressure-outlet 4.

 Reversed flow on 2 faces (1.0% area) of pressure-outlet 5.

  iter  continuity  x-velocity  y-velocity      energy           k       omega     time/iter
    67  2.2806e-02  1.6795e-02  9.4188e-03  2.1108e-02  2.1279e-02  8.2608e-03  0:00:48  933

 Reversed flow on 2 faces (1.0% area) of pressure-outlet 4.

 Reversed flow on 2 faces (1.0% area) of pressure-outlet 5.
    68  2.2430e-02  1.6509e-02  9.1738e-03  2.0767e-02  2.1467e-02  8.1780e-03  0:00:39  932

 Reversed flow on 2 faces (1.0% area) of pressure-outlet 4.

 Reversed flow on 2 faces (1.0% area) of pressure-outlet 5.
    69  2.2161e-02  1.6131e-02  8.9426e-03  2.0515e-02  2.1543e-02  8.0862e-03  0:03:37  931

 Reversed flow on 2 faces (1.0% area) of pressure-outlet 4.

 Reversed flow on 2 faces (1.0% area) of pressure-outlet 5.
    70  2.1965e-02  1.5766e-02  8.6859e-03  2.0343e-02  2.1567e-02  7.9892e-03  0:02:53  930

 Reversed flow on 2 faces (1.0% area) of pressure-outlet 4.

 Reversed flow on 2 faces (1.0% area) of pressure-outlet 5.
    71  2.1777e-02  1.5467e-02  8.4927e-03  2.0191e-02  2.1516e-02  7.8836e-03  0:02:19  929

 Reversed flow on 2 faces (1.0% area) of pressure-outlet 4.

 Reversed flow on 2 faces (1.0% area) of pressure-outlet 5.
    72  2.1526e-02  1.5171e-02  8.3201e-03  1.9979e-02  2.1512e-02  7.7769e-03  0:01:51  928

 Reversed flow on 2 faces (1.0% area) of pressure-outlet 4.

 Reversed flow on 2 faces (1.0% area) of pressure-outlet 5.
    73  2.1241e-02  1.4939e-02  8.1073e-03  1.9729e-02  2.1433e-02  7.6772e-03  0:01:29  927

 Reversed flow on 2 faces (1.0% area) of pressure-outlet 4.

 Reversed flow on 2 faces (1.0% area) of pressure-outlet 5.
    74  2.1014e-02  1.4721e-02  7.9045e-03  1.9535e-02  2.1294e-02  7.5826e-03  0:01:11  926

 Reversed flow on 2 faces (1.0% area) of pressure-outlet 4.

 Reversed flow on 2 faces (1.0% area) of pressure-outlet 5.
    75  2.0883e-02  1.4516e-02  7.7221e-03  1.9438e-02  2.1112e-02  7.4952e-03  0:00:57  925

 Reversed flow on 2 faces (1.0% area) of pressure-outlet 4.

 Reversed flow on 2 faces (1.0% area) of pressure-outlet 5.
    76  2.0807e-02  1.4258e-02  7.5941e-03  1.9384e-02  2.0889e-02  7.4126e-03  0:00:45  924

 Reversed flow on 2 faces (1.0% area) of pressure-outlet 4.

 Reversed flow on 2 faces (1.0% area) of pressure-outlet 5.
    77  2.0732e-02  1.3977e-02  7.4514e-03  1.9323e-02  2.0669e-02  7.3301e-03  0:00:36  923

 Reversed flow on 2 faces (1.0% area) of pressure-outlet 4.

 Reversed flow on 2 faces (1.0% area) of pressure-outlet 5.

  iter  continuity  x-velocity  y-velocity      energy           k       omega     time/iter
    78  2.0639e-02  1.3746e-02  7.2928e-03  1.9249e-02  2.0492e-02  7.2553e-03  0:03:33  922

 Reversed flow on 2 faces (1.0% area) of pressure-outlet 4.

 Reversed flow on 2 faces (1.0% area) of pressure-outlet 5.
    79  2.0514e-02  1.3557e-02  7.1568e-03  1.9152e-02  2.0304e-02  7.1852e-03  0:02:50  921

 Reversed flow on 2 faces (1.0% area) of pressure-outlet 4.

 Reversed flow on 2 faces (1.0% area) of pressure-outlet 5.
    80  2.0400e-02  1.3412e-02  7.0884e-03  1.9065e-02  2.0110e-02  7.1153e-03  0:02:16  920

 Reversed flow on 2 faces (1.0% area) of pressure-outlet 4.

 Reversed flow on 2 faces (1.0% area) of pressure-outlet 5.
    81  2.0333e-02  1.3275e-02  6.9414e-03  1.9014e-02  1.9868e-02  7.0489e-03  0:01:49  919

 Reversed flow on 2 faces (1.0% area) of pressure-outlet 4.

 Reversed flow on 2 faces (1.0% area) of pressure-outlet 5.
    82  2.0287e-02  1.3091e-02  6.7413e-03  1.8972e-02  1.9643e-02  6.9857e-03  0:01:27  918

 Reversed flow on 2 faces (1.0% area) of pressure-outlet 4.

 Reversed flow on 2 faces (1.0% area) of pressure-outlet 5.
    83  2.0232e-02  1.2866e-02  6.5476e-03  1.8919e-02  1.9474e-02  6.9296e-03  0:01:09  917

 Reversed flow on 2 faces (1.0% area) of pressure-outlet 4.

 Reversed flow on 2 faces (1.0% area) of pressure-outlet 5.
    84  2.0173e-02  1.2634e-02  6.4258e-03  1.8867e-02  1.9312e-02  6.8764e-03  0:00:56  916

 Reversed flow on 2 faces (1.0% area) of pressure-outlet 4.

 Reversed flow on 2 faces (1.0% area) of pressure-outlet 5.
    85  2.0094e-02  1.2442e-02  6.3313e-03  1.8803e-02  1.9179e-02  6.8218e-03  0:00:44  915

 Reversed flow on 2 faces (1.0% area) of pressure-outlet 4.

 Reversed flow on 2 faces (1.0% area) of pressure-outlet 5.
    86  1.9977e-02  1.2310e-02  6.1974e-03  1.8699e-02  1.9051e-02  6.7715e-03  0:03:38  914

 Reversed flow on 2 faces (1.0% area) of pressure-outlet 4.

 Reversed flow on 2 faces (1.0% area) of pressure-outlet 5.
    87  1.9854e-02  1.2192e-02  6.0168e-03  1.8583e-02  1.8914e-02  6.7239e-03  0:02:54  913

 Reversed flow on 2 faces (1.0% area) of pressure-outlet 4.

 Reversed flow on 2 faces (1.0% area) of pressure-outlet 5.
    88  1.9757e-02  1.2069e-02  5.8322e-03  1.8490e-02  1.8798e-02  6.6730e-03  0:02:19  912

 Reversed flow on 2 faces (1.0% area) of pressure-outlet 4.

 Reversed flow on 2 faces (1.0% area) of pressure-outlet 5.

  iter  continuity  x-velocity  y-velocity      energy           k       omega     time/iter
    89  1.9672e-02  1.1934e-02  5.6435e-03  1.8411e-02  1.8683e-02  6.6259e-03  0:01:51  911

 Reversed flow on 2 faces (1.0% area) of pressure-outlet 4.

 Reversed flow on 2 faces (1.0% area) of pressure-outlet 5.
    90  1.9588e-02  1.1768e-02  5.5020e-03  1.8331e-02  1.8577e-02  6.5841e-03  0:01:29  910

 Reversed flow on 2 faces (1.0% area) of pressure-outlet 4.

 Reversed flow on 2 faces (1.0% area) of pressure-outlet 5.
    91  1.9503e-02  1.1585e-02  5.3867e-03  1.8249e-02  1.8490e-02  6.5432e-03  0:01:11  909

 Reversed flow on 2 faces (1.0% area) of pressure-outlet 4.

 Reversed flow on 2 faces (1.0% area) of pressure-outlet 5.
    92  1.9389e-02  1.1417e-02  5.3063e-03  1.8138e-02  1.8400e-02  6.5052e-03  0:00:57  908

 Reversed flow on 2 faces (1.0% area) of pressure-outlet 4.

 Reversed flow on 2 faces (1.0% area) of pressure-outlet 5.
    93  1.9240e-02  1.1299e-02  5.1968e-03  1.7994e-02  1.8312e-02  6.4715e-03  0:03:47  907

 Reversed flow on 2 faces (1.0% area) of pressure-outlet 4.

 Reversed flow on 2 faces (1.0% area) of pressure-outlet 5.
    94  1.9077e-02  1.1223e-02  5.0485e-03  1.7839e-02  1.8225e-02  6.4393e-03  0:03:01  906

 Reversed flow on 2 faces (1.0% area) of pressure-outlet 4.

 Reversed flow on 2 faces (1.0% area) of pressure-outlet 5.
    95  1.8922e-02  1.1142e-02  4.9324e-03  1.7688e-02  1.8151e-02  6.4071e-03  0:02:25  905

 Reversed flow on 2 faces (1.0% area) of pressure-outlet 4.

 Reversed flow on 7 faces (2.6% area) of pressure-outlet 5.
    96  1.8781e-02  1.1040e-02  4.8324e-03  1.7550e-02  1.8089e-02  6.3689e-03  0:01:56  904

 Reversed flow on 2 faces (1.0% area) of pressure-outlet 4.

 Reversed flow on 12 faces (4.2% area) of pressure-outlet 5.
    97  1.8649e-02  1.0918e-02  4.7226e-03  1.7421e-02  1.8022e-02  6.3199e-03  0:01:32  903

 Reversed flow on 2 faces (1.0% area) of pressure-outlet 4.

 Reversed flow on 12 faces (4.1% area) of pressure-outlet 5.
    98  1.8523e-02  1.0782e-02  4.6387e-03  1.7302e-02  1.7950e-02  6.2702e-03  0:01:14  902

 Reversed flow on 7 faces (2.5% area) of pressure-outlet 4.

 Reversed flow on 13 faces (4.4% area) of pressure-outlet 5.
    99  1.8397e-02  1.0654e-02  4.5956e-03  1.7187e-02  1.7890e-02  6.2240e-03  0:00:59  901

 Reversed flow on 11 faces (3.8% area) of pressure-outlet 4.

 Reversed flow on 18 faces (6.1% area) of pressure-outlet 5.

  iter  continuity  x-velocity  y-velocity      energy           k       omega     time/iter
   100  1.8275e-02  1.0603e-02  5.0787e-03  1.7076e-02  1.7839e-02  6.1778e-03  0:00:47  900

 Reversed flow on 15 faces (5.1% area) of pressure-outlet 4.

 Reversed flow on 17 faces (5.9% area) of pressure-outlet 5.
   101  1.8117e-02  1.0536e-02  5.1062e-03  1.6927e-02  1.7770e-02  6.1350e-03  0:00:38  899

 Reversed flow on 19 faces (6.5% area) of pressure-outlet 4.

 Reversed flow on 21 faces (7.4% area) of pressure-outlet 5.
   102  1.7969e-02  1.0500e-02  5.3127e-03  1.6790e-02  1.7710e-02  6.0992e-03  0:03:30  898

 Reversed flow on 23 faces (7.9% area) of pressure-outlet 4.

 Reversed flow on 25 faces (8.9% area) of pressure-outlet 5.
   103  1.7810e-02  1.0465e-02  5.5266e-03  1.6643e-02  1.7639e-02  6.0591e-03  0:02:48  897

 Reversed flow on 19 faces (6.7% area) of pressure-outlet 4.

 Reversed flow on 26 faces (9.4% area) of pressure-outlet 5.
   104  1.7638e-02  1.0386e-02  5.3132e-03  1.6481e-02  1.7561e-02  6.0172e-03  0:02:14  896

 Reversed flow on 19 faces (6.8% area) of pressure-outlet 4.

 Reversed flow on 27 faces (9.9% area) of pressure-outlet 5.
   105  1.7489e-02  1.0297e-02  5.3812e-03  1.6342e-02  1.7483e-02  5.9759e-03  0:01:47  895

 Reversed flow on 20 faces (7.3% area) of pressure-outlet 4.

 Reversed flow on 21 faces (8.2% area) of pressure-outlet 5.
   106  1.7339e-02  1.0212e-02  5.5612e-03  1.6201e-02  1.7404e-02  5.9392e-03  0:01:26  894

 Reversed flow on 18 faces (6.8% area) of pressure-outlet 4.

 Reversed flow on 22 faces (8.6% area) of pressure-outlet 5.
   107  1.7176e-02  1.0130e-02  5.4164e-03  1.6047e-02  1.7311e-02  5.9015e-03  0:01:08  893

 Reversed flow on 18 faces (6.9% area) of pressure-outlet 4.

 Reversed flow on 17 faces (6.8% area) of pressure-outlet 5.
   108  1.7006e-02  1.0035e-02  5.2599e-03  1.5886e-02  1.7211e-02  5.8639e-03  0:00:55  892

 Reversed flow on 16 faces (6.5% area) of pressure-outlet 4.

 Reversed flow on 12 faces (5.0% area) of pressure-outlet 5.
   109  1.6830e-02  9.9546e-03  4.8677e-03  1.5718e-02  1.7118e-02  5.8230e-03  0:00:44  891

 Reversed flow on 13 faces (5.4% area) of pressure-outlet 4.

 Reversed flow on 10 faces (4.1% area) of pressure-outlet 5.
   110  1.6657e-02  9.8903e-03  4.6942e-03  1.5552e-02  1.7023e-02  5.7890e-03  0:00:35  890

 Reversed flow on 12 faces (5.0% area) of pressure-outlet 4.

 Reversed flow on 8 faces (3.2% area) of pressure-outlet 5.

  iter  continuity  x-velocity  y-velocity      energy           k       omega     time/iter
   111  1.6489e-02  9.8151e-03  4.4972e-03  1.5387e-02  1.6927e-02  5.7534e-03  0:00:28  889

 Reversed flow on 8 faces (3.4% area) of pressure-outlet 4.

 Reversed flow on 6 faces (2.4% area) of pressure-outlet 5.
   112  1.6334e-02  9.7389e-03  4.3021e-03  1.5236e-02  1.6838e-02  5.7186e-03  0:03:20  888

 Reversed flow on 5 faces (2.4% area) of pressure-outlet 4.

 Reversed flow on 4 faces (1.7% area) of pressure-outlet 5.
   113  1.6180e-02  9.6685e-03  4.2141e-03  1.5086e-02  1.6763e-02  5.6850e-03  0:02:40  887

 Reversed flow on 4 faces (1.9% area) of pressure-outlet 4.

 Reversed flow on 2 faces (1.0% area) of pressure-outlet 5.
   114  1.6032e-02  9.6108e-03  4.2002e-03  1.4944e-02  1.6691e-02  5.6522e-03  0:02:08  886

 Reversed flow on 3 faces (1.4% area) of pressure-outlet 4.

 Reversed flow on 2 faces (1.0% area) of pressure-outlet 5.
   115  1.5892e-02  9.5650e-03  4.2132e-03  1.4809e-02  1.6615e-02  5.6170e-03  0:01:42  885

 Reversed flow on 2 faces (1.0% area) of pressure-outlet 4.

 Reversed flow on 2 faces (1.0% area) of pressure-outlet 5.
   116  1.5755e-02  9.5282e-03  4.2403e-03  1.4677e-02  1.6543e-02  5.5824e-03  0:01:21  884

 Reversed flow on 2 faces (1.0% area) of pressure-outlet 4.

 Reversed flow on 1 face (0.5% area) of pressure-outlet 5.
   117  1.5618e-02  9.4988e-03  4.2713e-03  1.4543e-02  1.6467e-02  5.5477e-03  0:01:05  883

 Reversed flow on 2 faces (1.0% area) of pressure-outlet 4.

 Reversed flow on 2 faces (1.0% area) of pressure-outlet 5.
   118  1.5486e-02  9.4706e-03  4.3021e-03  1.4414e-02  1.6383e-02  5.5107e-03  0:03:48  882

 Reversed flow on 1 face (0.5% area) of pressure-outlet 4.

 Reversed flow on 1 face (0.5% area) of pressure-outlet 5.
   119  1.5364e-02  9.4351e-03  4.3287e-03  1.4296e-02  1.6297e-02  5.4740e-03  0:03:03  881

 Reversed flow on 1 face (0.5% area) of pressure-outlet 4.

 Reversed flow on 2 faces (1.0% area) of pressure-outlet 5.
   120  1.5250e-02  9.3956e-03  4.3511e-03  1.4189e-02  1.6222e-02  5.4331e-03  0:02:26  880

 Reversed flow on 1 face (0.5% area) of pressure-outlet 4.

 Reversed flow on 1 face (0.5% area) of pressure-outlet 5.
   121  1.5145e-02  9.3544e-03  4.3785e-03  1.4090e-02  1.6161e-02  5.3954e-03  0:01:57  879

 Reversed flow on 1 face (0.5% area) of pressure-outlet 4.

 Reversed flow on 2 faces (1.0% area) of pressure-outlet 5.

  iter  continuity  x-velocity  y-velocity      energy           k       omega     time/iter
   122  1.5049e-02  9.3130e-03  4.4086e-03  1.4000e-02  1.6125e-02  5.3637e-03  0:01:33  878

 Reversed flow on 1 face (0.5% area) of pressure-outlet 4.

 Reversed flow on 1 face (0.5% area) of pressure-outlet 5.
   123  1.4956e-02  9.2710e-03  4.4382e-03  1.3912e-02  1.6103e-02  5.3331e-03  0:01:14  877

 Reversed flow on 1 face (0.5% area) of pressure-outlet 4.

 Reversed flow on 1 face (0.5% area) of pressure-outlet 5.
   124  1.4858e-02  9.2294e-03  4.4600e-03  1.3818e-02  1.6086e-02  5.3039e-03  0:00:59  876

 Reversed flow on 1 face (0.5% area) of pressure-outlet 4.

 Reversed flow on 2 faces (1.0% area) of pressure-outlet 5.
   125  1.4746e-02  9.1868e-03  4.4738e-03  1.3712e-02  1.6072e-02  5.2721e-03  0:00:48  875

 Reversed flow on 1 face (0.5% area) of pressure-outlet 4.

 Reversed flow on 1 face (0.5% area) of pressure-outlet 5.
   126  1.4622e-02  9.1394e-03  4.4825e-03  1.3595e-02  1.6069e-02  5.2352e-03  0:00:38  874

 Reversed flow on 1 face (0.5% area) of pressure-outlet 4.

 Reversed flow on 1 face (0.5% area) of pressure-outlet 5.
   127  1.4489e-02  9.0857e-03  4.4846e-03  1.3471e-02  1.6071e-02  5.1887e-03  0:03:25  873

 Reversed flow on 1 face (0.5% area) of pressure-outlet 4.

 Reversed flow on 1 face (0.5% area) of pressure-outlet 5.
   128  1.4352e-02  9.0247e-03  4.4829e-03  1.3344e-02  1.6063e-02  5.1405e-03  0:02:44  872

 Reversed flow on 1 face (0.5% area) of pressure-outlet 4.

 Reversed flow on 1 face (0.5% area) of pressure-outlet 5.
   129  1.4215e-02  8.9610e-03  4.4793e-03  1.3218e-02  1.6047e-02  5.0933e-03  0:02:11  871

 Reversed flow on 1 face (0.5% area) of pressure-outlet 4.

 Reversed flow on 1 face (0.5% area) of pressure-outlet 5.
   130  1.4088e-02  8.8937e-03  4.4668e-03  1.3101e-02  1.6033e-02  5.0460e-03  0:01:45  870

 Reversed flow on 1 face (0.5% area) of pressure-outlet 4.

 Reversed flow on 1 face (0.5% area) of pressure-outlet 5.
   131  1.3966e-02  8.8221e-03  4.4449e-03  1.2988e-02  1.6010e-02  5.0023e-03  0:01:24  869

 Reversed flow on 1 face (0.5% area) of pressure-outlet 4.

 Reversed flow on 1 face (0.5% area) of pressure-outlet 5.
   132  1.3846e-02  8.7514e-03  4.4176e-03  1.2879e-02  1.5994e-02  4.9618e-03  0:01:07  868

 Reversed flow on 1 face (0.5% area) of pressure-outlet 4.

 Reversed flow on 1 face (0.5% area) of pressure-outlet 5.

  iter  continuity  x-velocity  y-velocity      energy           k       omega     time/iter
   133  1.3727e-02  8.6802e-03  4.3916e-03  1.2770e-02  1.5980e-02  4.9210e-03  0:00:53  867

 Reversed flow on 1 face (0.5% area) of pressure-outlet 4.

 Reversed flow on 1 face (0.5% area) of pressure-outlet 5.
   134  1.3604e-02  8.6045e-03  4.3622e-03  1.2658e-02  1.5957e-02  4.8828e-03  0:00:43  866

 Reversed flow on 1 face (0.5% area) of pressure-outlet 4.

 Reversed flow on 1 face (0.5% area) of pressure-outlet 5.
   135  1.3478e-02  8.5229e-03  4.3218e-03  1.2544e-02  1.5928e-02  4.8481e-03  0:00:34  865

 Reversed flow on 1 face (0.5% area) of pressure-outlet 4.

 Reversed flow on 1 face (0.5% area) of pressure-outlet 5.
   136  1.3349e-02  8.4292e-03  4.2782e-03  1.2427e-02  1.5904e-02  4.8130e-03  0:00:27  864

 Reversed flow on 1 face (0.5% area) of pressure-outlet 4.

 Reversed flow on 1 face (0.5% area) of pressure-outlet 5.
   137  1.3213e-02  8.3307e-03  4.2342e-03  1.2302e-02  1.5867e-02  4.7753e-03  0:03:14  863

 Reversed flow on 1 face (0.5% area) of pressure-outlet 4.

 Reversed flow on 1 face (0.5% area) of pressure-outlet 5.
   138  1.3085e-02  8.2262e-03  4.1921e-03  1.2185e-02  1.5812e-02  4.7368e-03  0:02:35  862

 Reversed flow on 1 face (0.5% area) of pressure-outlet 4.

 Reversed flow on 1 face (0.5% area) of pressure-outlet 5.
   139  1.2958e-02  8.1218e-03  4.1492e-03  1.2069e-02  1.5739e-02  4.6937e-03  0:02:04  861

 Reversed flow on 1 face (0.5% area) of pressure-outlet 4.

 Reversed flow on 1 face (0.5% area) of pressure-outlet 5.
   140  1.2826e-02  8.0180e-03  4.1017e-03  1.1949e-02  1.5636e-02  4.6451e-03  0:01:39  860

 Reversed flow on 1 face (0.5% area) of pressure-outlet 4.

 Reversed flow on 1 face (0.5% area) of pressure-outlet 5.
   141  1.2692e-02  7.9135e-03  4.0492e-03  1.1827e-02  1.5504e-02  4.5936e-03  0:01:19  859

 Reversed flow on 1 face (0.5% area) of pressure-outlet 4.

 Reversed flow on 1 face (0.5% area) of pressure-outlet 5.
   142  1.2556e-02  7.8073e-03  3.9934e-03  1.1704e-02  1.5357e-02  4.5422e-03  0:01:03  858

 Reversed flow on 1 face (0.5% area) of pressure-outlet 4.

 Reversed flow on 1 face (0.5% area) of pressure-outlet 5.
   143  1.2415e-02  7.6994e-03  3.9315e-03  1.1578e-02  1.5214e-02  4.4906e-03  0:00:51  857

 Reversed flow on 1 face (0.5% area) of pressure-outlet 4.

 Reversed flow on 1 face (0.5% area) of pressure-outlet 5.

  iter  continuity  x-velocity  y-velocity      energy           k       omega     time/iter
   144  1.2272e-02  7.5801e-03  3.8630e-03  1.1450e-02  1.5067e-02  4.4360e-03  0:00:40  856

 Reversed flow on 1 face (0.5% area) of pressure-outlet 4.

 Reversed flow on 1 face (0.5% area) of pressure-outlet 5.
   145  1.2131e-02  7.4644e-03  3.7934e-03  1.1323e-02  1.4951e-02  4.3801e-03  0:00:32  855

 Reversed flow on 1 face (0.5% area) of pressure-outlet 4.

 Reversed flow on 1 face (0.5% area) of pressure-outlet 5.
   146  1.1998e-02  7.3477e-03  3.7242e-03  1.1204e-02  1.4860e-02  4.3232e-03  0:03:17  854

 Reversed flow on 1 face (0.5% area) of pressure-outlet 4.

 Reversed flow on 1 face (0.5% area) of pressure-outlet 5.
   147  1.1870e-02  7.2322e-03  3.6581e-03  1.1088e-02  1.4788e-02  4.2655e-03  0:02:37  853

 Reversed flow on 1 face (0.5% area) of pressure-outlet 4.

 Reversed flow on 1 face (0.5% area) of pressure-outlet 5.
   148  1.1740e-02  7.1157e-03  3.5917e-03  1.0971e-02  1.4704e-02  4.2067e-03  0:02:06  852

 Reversed flow on 1 face (0.5% area) of pressure-outlet 4.

 Reversed flow on 1 face (0.5% area) of pressure-outlet 5.
   149  1.1610e-02  6.9980e-03  3.5220e-03  1.0853e-02  1.4586e-02  4.1490e-03  0:01:40  851

 Reversed flow on 1 face (0.5% area) of pressure-outlet 4.

 Reversed flow on 1 face (0.5% area) of pressure-outlet 5.
   150  1.1481e-02  6.8759e-03  3.4534e-03  1.0738e-02  1.4450e-02  4.0930e-03  0:01:20  850

 Reversed flow on 1 face (0.5% area) of pressure-outlet 4.

 Reversed flow on 1 face (0.5% area) of pressure-outlet 5.
   151  1.1354e-02  6.7513e-03  3.3862e-03  1.0625e-02  1.4298e-02  4.0400e-03  0:01:04  849

 Reversed flow on 1 face (0.5% area) of pressure-outlet 4.

 Reversed flow on 1 face (0.5% area) of pressure-outlet 5.
   152  1.1235e-02  6.6230e-03  3.3232e-03  1.0520e-02  1.4133e-02  3.9878e-03  0:00:51  848

 Reversed flow on 1 face (0.5% area) of pressure-outlet 4.

 Reversed flow on 1 face (0.5% area) of pressure-outlet 5.
   153  1.1118e-02  6.4991e-03  3.2593e-03  1.0417e-02  1.3959e-02  3.9366e-03  0:00:41  847

 Reversed flow on 1 face (0.5% area) of pressure-outlet 4.

 Reversed flow on 1 face (0.5% area) of pressure-outlet 5.
   154  1.1002e-02  6.3753e-03  3.2019e-03  1.0313e-02  1.3780e-02  3.8866e-03  0:00:33  846

 Reversed flow on 1 face (0.5% area) of pressure-outlet 4.

 Reversed flow on 1 face (0.5% area) of pressure-outlet 5.

  iter  continuity  x-velocity  y-velocity      energy           k       omega     time/iter
   155  1.0897e-02  6.2497e-03  3.1487e-03  1.0220e-02  1.3596e-02  3.8349e-03  0:03:15  845

 Reversed flow on 1 face (0.5% area) of pressure-outlet 4.

 Reversed flow on 1 face (0.5% area) of pressure-outlet 5.
   156  1.0798e-02  6.1298e-03  3.0925e-03  1.0133e-02  1.3407e-02  3.7837e-03  0:02:36  844

 Reversed flow on 1 face (0.5% area) of pressure-outlet 4.

 Reversed flow on 1 face (0.5% area) of pressure-outlet 5.
   157  1.0701e-02  6.0114e-03  3.0370e-03  1.0048e-02  1.3211e-02  3.7338e-03  0:02:05  843

 Reversed flow on 1 face (0.5% area) of pressure-outlet 4.

 Reversed flow on 1 face (0.5% area) of pressure-outlet 5.
   158  1.0608e-02  5.8897e-03  2.9865e-03  9.9672e-03  1.3013e-02  3.6847e-03  0:01:40  842

 Reversed flow on 1 face (0.5% area) of pressure-outlet 4.

 Reversed flow on 1 face (0.5% area) of pressure-outlet 5.
   159  1.0521e-02  5.7683e-03  2.9364e-03  9.8919e-03  1.2823e-02  3.6344e-03  0:01:20  841

 Reversed flow on 1 face (0.5% area) of pressure-outlet 4.

 Reversed flow on 1 face (0.5% area) of pressure-outlet 5.
   160  1.0428e-02  5.6517e-03  2.8919e-03  9.8113e-03  1.2638e-02  3.5861e-03  0:01:04  840

 Reversed flow on 1 face (0.5% area) of pressure-outlet 4.

 Reversed flow on 1 face (0.5% area) of pressure-outlet 5.
   161  1.0328e-02  5.5394e-03  2.8464e-03  9.7241e-03  1.2455e-02  3.5386e-03  0:00:51  839

 Reversed flow on 1 face (0.5% area) of pressure-outlet 4.

 Reversed flow on 1 face (0.5% area) of pressure-outlet 5.
   162  1.0235e-02  5.4243e-03  2.7986e-03  9.6428e-03  1.2274e-02  3.4907e-03  0:03:28  838

 Reversed flow on 1 face (0.5% area) of pressure-outlet 4.

 Reversed flow on 1 face (0.5% area) of pressure-outlet 5.
   163  1.0151e-02  5.3152e-03  2.7451e-03  9.5705e-03  1.2091e-02  3.4456e-03  0:02:46  837

 Reversed flow on 1 face (0.5% area) of pressure-outlet 4.

 Reversed flow on 1 face (0.5% area) of pressure-outlet 5.
   164  1.0072e-02  5.2105e-03  2.6900e-03  9.5016e-03  1.1909e-02  3.4019e-03  0:02:13  836

 Reversed flow on 1 face (0.5% area) of pressure-outlet 4.

 Reversed flow on 1 face (0.5% area) of pressure-outlet 5.
   165  9.9927e-03  5.1057e-03  2.6399e-03  9.4317e-03  1.1733e-02  3.3606e-03  0:01:46  835

 Reversed flow on 1 face (0.5% area) of pressure-outlet 4.

 Reversed flow on 1 face (0.5% area) of pressure-outlet 5.

  iter  continuity  x-velocity  y-velocity      energy           k       omega     time/iter
   166  9.9118e-03  4.9962e-03  2.5883e-03  9.3606e-03  1.1555e-02  3.3176e-03  0:01:25  834

 Reversed flow on 1 face (0.5% area) of pressure-outlet 4.

 Reversed flow on 1 face (0.5% area) of pressure-outlet 5.
   167  9.8341e-03  4.8869e-03  2.5391e-03  9.2913e-03  1.1372e-02  3.2754e-03  0:01:08  833

 Reversed flow on 1 face (0.5% area) of pressure-outlet 4.

 Reversed flow on 1 face (0.5% area) of pressure-outlet 5.
   168  9.7621e-03  4.7794e-03  2.4887e-03  9.2270e-03  1.1188e-02  3.2369e-03  0:00:54  832

 Reversed flow on 1 face (0.5% area) of pressure-outlet 4.

 Reversed flow on 1 face (0.5% area) of pressure-outlet 5.
   169  9.6847e-03  4.6784e-03  2.4358e-03  9.1574e-03  1.1015e-02  3.1945e-03  0:00:43  831

 Reversed flow on 1 face (0.5% area) of pressure-outlet 4.

 Reversed flow on 1 face (0.5% area) of pressure-outlet 5.
   170  9.6036e-03  4.5803e-03  2.3848e-03  9.0848e-03  1.0846e-02  3.1562e-03  0:00:35  830

 Reversed flow on 1 face (0.5% area) of pressure-outlet 4.

 Reversed flow on 1 face (0.5% area) of pressure-outlet 5.
   171  9.5302e-03  4.4886e-03  2.3315e-03  9.0189e-03  1.0683e-02  3.1198e-03  0:00:28  829

 Reversed flow on 1 face (0.5% area) of pressure-outlet 4.

 Reversed flow on 1 face (0.5% area) of pressure-outlet 5.
   172  9.4575e-03  4.3925e-03  2.2836e-03  8.9527e-03  1.0527e-02  3.0844e-03  0:03:08  828

 Reversed flow on 1 face (0.5% area) of pressure-outlet 4.

 Reversed flow on 1 face (0.5% area) of pressure-outlet 5.
   173  9.3815e-03  4.3016e-03  2.2337e-03  8.8820e-03  1.0378e-02  3.0468e-03  0:02:30  827

 Reversed flow on 1 face (0.5% area) of pressure-outlet 4.

 Reversed flow on 1 face (0.5% area) of pressure-outlet 5.
   174  9.3069e-03  4.2138e-03  2.1841e-03  8.8117e-03  1.0231e-02  3.0089e-03  0:02:00  826

 Reversed flow on 1 face (0.5% area) of pressure-outlet 4.

 Reversed flow on 1 face (0.5% area) of pressure-outlet 5.
   175  9.2327e-03  4.1190e-03  2.1332e-03  8.7411e-03  1.0092e-02  2.9748e-03  0:01:36  825

 Reversed flow on 2 faces (0.7% area) of pressure-outlet 4.

 Reversed flow on 1 face (0.5% area) of pressure-outlet 5.
   176  9.1590e-03  4.0331e-03  2.0804e-03  8.6693e-03  9.9544e-03  2.9421e-03  0:01:17  824

 Reversed flow on 4 faces (1.0% area) of pressure-outlet 4.

 Reversed flow on 1 face (0.5% area) of pressure-outlet 5.

  iter  continuity  x-velocity  y-velocity      energy           k       omega     time/iter
   177  9.0887e-03  3.9474e-03  2.0294e-03  8.6001e-03  9.8205e-03  2.9090e-03  0:01:01  823

 Reversed flow on 5 faces (1.2% area) of pressure-outlet 4.

 Reversed flow on 1 face (0.5% area) of pressure-outlet 5.
   178  9.0194e-03  3.8631e-03  1.9763e-03  8.5315e-03  9.6928e-03  2.8755e-03  0:00:49  822

 Reversed flow on 7 faces (1.6% area) of pressure-outlet 4.

 Reversed flow on 1 face (0.5% area) of pressure-outlet 5.
   179  8.9493e-03  3.7845e-03  1.9253e-03  8.4616e-03  9.5706e-03  2.8411e-03  0:00:39  821

 Reversed flow on 7 faces (1.6% area) of pressure-outlet 4.

 Reversed flow on 1 face (0.5% area) of pressure-outlet 5.
   180  8.8776e-03  3.7094e-03  1.8784e-03  8.3898e-03  9.4534e-03  2.8057e-03  0:00:31  820

 Reversed flow on 8 faces (1.8% area) of pressure-outlet 4.

 Reversed flow on 1 face (0.5% area) of pressure-outlet 5.
   181  8.8044e-03  3.6410e-03  1.8345e-03  8.3159e-03  9.3421e-03  2.7726e-03  0:03:09  819

 Reversed flow on 9 faces (2.3% area) of pressure-outlet 4.

 Reversed flow on 1 face (0.5% area) of pressure-outlet 5.
   182  8.7299e-03  3.5777e-03  1.7928e-03  8.2403e-03  9.2378e-03  2.7418e-03  0:02:31  818

 Reversed flow on 10 faces (2.4% area) of pressure-outlet 4.

 Reversed flow on 1 face (0.5% area) of pressure-outlet 5.
   183  8.6582e-03  3.5064e-03  1.7489e-03  8.1662e-03  9.1385e-03  2.7124e-03  0:02:00  817

 Reversed flow on 10 faces (2.4% area) of pressure-outlet 4.

 Reversed flow on 3 faces (0.8% area) of pressure-outlet 5.
   184  8.5890e-03  3.4489e-03  1.7116e-03  8.0932e-03  9.0448e-03  2.6840e-03  0:01:36  816

 Reversed flow on 9 faces (2.2% area) of pressure-outlet 4.

 Reversed flow on 5 faces (1.2% area) of pressure-outlet 5.
   185  8.5177e-03  3.3930e-03  1.6783e-03  8.0179e-03  8.9592e-03  2.6540e-03  0:01:17  815

 Reversed flow on 10 faces (2.4% area) of pressure-outlet 4.

 Reversed flow on 6 faces (1.4% area) of pressure-outlet 5.
   186  8.4468e-03  3.3450e-03  1.6508e-03  7.9425e-03  8.8791e-03  2.6258e-03  0:01:01  814

 Reversed flow on 10 faces (2.4% area) of pressure-outlet 4.

 Reversed flow on 9 faces (2.2% area) of pressure-outlet 5.
   187  8.3779e-03  3.2822e-03  1.6247e-03  7.8684e-03  8.8048e-03  2.5983e-03  0:00:49  813

 Reversed flow on 10 faces (2.4% area) of pressure-outlet 4.

 Reversed flow on 9 faces (2.2% area) of pressure-outlet 5.

  iter  continuity  x-velocity  y-velocity      energy           k       omega     time/iter
   188  8.3111e-03  3.2337e-03  1.6014e-03  7.7961e-03  8.7341e-03  2.5721e-03  0:00:39  812

 Reversed flow on 10 faces (2.4% area) of pressure-outlet 4.

 Reversed flow on 10 faces (2.4% area) of pressure-outlet 5.
   189  8.2449e-03  3.1896e-03  1.5802e-03  7.7243e-03  8.6663e-03  2.5468e-03  0:00:31  811

 Reversed flow on 11 faces (2.5% area) of pressure-outlet 4.

 Reversed flow on 11 faces (2.5% area) of pressure-outlet 5.
   190  8.1795e-03  3.1502e-03  1.5605e-03  7.6537e-03  8.6019e-03  2.5219e-03  0:00:25  810

 Reversed flow on 10 faces (2.3% area) of pressure-outlet 4.

 Reversed flow on 11 faces (2.5% area) of pressure-outlet 5.
   191  8.1165e-03  3.1201e-03  1.5441e-03  7.5858e-03  8.5412e-03  2.4976e-03  0:03:02  809

 Reversed flow on 10 faces (2.3% area) of pressure-outlet 4.

 Reversed flow on 11 faces (2.5% area) of pressure-outlet 5.
   192  8.0546e-03  3.0952e-03  1.5284e-03  7.5194e-03  8.4833e-03  2.4719e-03  0:02:25  808

 Reversed flow on 11 faces (2.5% area) of pressure-outlet 4.

 Reversed flow on 10 faces (2.3% area) of pressure-outlet 5.
   193  7.9951e-03  3.0761e-03  1.5120e-03  7.4559e-03  8.4289e-03  2.4456e-03  0:01:56  807

 Reversed flow on 11 faces (2.5% area) of pressure-outlet 4.

 Reversed flow on 11 faces (2.5% area) of pressure-outlet 5.
   194  7.9410e-03  3.0609e-03  1.4965e-03  7.3983e-03  8.3766e-03  2.4220e-03  0:01:33  806

 Reversed flow on 12 faces (2.7% area) of pressure-outlet 4.

 Reversed flow on 10 faces (2.3% area) of pressure-outlet 5.
   195  7.8949e-03  3.0366e-03  1.4829e-03  7.3481e-03  8.3286e-03  2.3976e-03  0:01:14  805

 Reversed flow on 12 faces (2.7% area) of pressure-outlet 4.

 Reversed flow on 11 faces (2.5% area) of pressure-outlet 5.
   196  7.8540e-03  3.0251e-03  1.4713e-03  7.3034e-03  8.2825e-03  2.3750e-03  0:00:59  804

 Reversed flow on 12 faces (2.7% area) of pressure-outlet 4.

 Reversed flow on 10 faces (2.3% area) of pressure-outlet 5.
   197  7.8178e-03  3.0224e-03  1.4613e-03  7.2639e-03  8.2368e-03  2.3546e-03  0:00:47  803

 Reversed flow on 13 faces (2.8% area) of pressure-outlet 4.

 Reversed flow on 11 faces (2.4% area) of pressure-outlet 5.
   198  7.7868e-03  3.0205e-03  1.4547e-03  7.2301e-03  8.1933e-03  2.3351e-03  0:00:38  802

 Reversed flow on 13 faces (2.8% area) of pressure-outlet 4.

 Reversed flow on 11 faces (2.4% area) of pressure-outlet 5.

  iter  continuity  x-velocity  y-velocity      energy           k       omega     time/iter
   199  7.7610e-03  3.0071e-03  1.4474e-03  7.2016e-03  8.1500e-03  2.3138e-03  0:03:10  801

 Reversed flow on 13 faces (2.8% area) of pressure-outlet 4.

 Reversed flow on 11 faces (2.4% area) of pressure-outlet 5.
   200  7.7394e-03  3.0055e-03  1.4409e-03  7.1781e-03  8.1096e-03  2.2935e-03  0:02:32  800

 Reversed flow on 13 faces (2.8% area) of pressure-outlet 4.

 Reversed flow on 12 faces (2.6% area) of pressure-outlet 5.
   201  7.7190e-03  3.0077e-03  1.4329e-03  7.1570e-03  8.0702e-03  2.2740e-03  0:02:02  799

 Reversed flow on 13 faces (2.8% area) of pressure-outlet 4.

 Reversed flow on 13 faces (2.8% area) of pressure-outlet 5.
   202  7.7015e-03  3.0157e-03  1.4289e-03  7.1401e-03  8.0300e-03  2.2553e-03  0:01:37  798

 Reversed flow on 12 faces (2.6% area) of pressure-outlet 4.

 Reversed flow on 14 faces (2.9% area) of pressure-outlet 5.
   203  7.6864e-03  3.0273e-03  1.4232e-03  7.1263e-03  7.9908e-03  2.2356e-03  0:01:18  797

 Reversed flow on 12 faces (2.6% area) of pressure-outlet 4.

 Reversed flow on 14 faces (2.9% area) of pressure-outlet 5.
   204  7.6772e-03  3.0401e-03  1.4170e-03  7.1192e-03  7.9516e-03  2.2182e-03  0:01:02  796

 Reversed flow on 12 faces (2.6% area) of pressure-outlet 4.

 Reversed flow on 13 faces (2.7% area) of pressure-outlet 5.
   205  7.6756e-03  3.0547e-03  1.4117e-03  7.1203e-03  7.9145e-03  2.2013e-03  0:00:50  795

 Reversed flow on 12 faces (2.6% area) of pressure-outlet 4.

 Reversed flow on 14 faces (2.9% area) of pressure-outlet 5.
   206  7.6818e-03  3.0666e-03  1.4043e-03  7.1297e-03  7.8797e-03  2.1832e-03  0:00:40  794

 Reversed flow on 12 faces (2.6% area) of pressure-outlet 4.

 Reversed flow on 14 faces (2.9% area) of pressure-outlet 5.
   207  7.6937e-03  3.0857e-03  1.3993e-03  7.1447e-03  7.8457e-03  2.1671e-03  0:00:32  793

 Reversed flow on 12 faces (2.6% area) of pressure-outlet 4.

 Reversed flow on 14 faces (2.9% area) of pressure-outlet 5.
   208  7.7068e-03  3.1099e-03  1.3981e-03  7.1611e-03  7.8108e-03  2.1526e-03  0:03:04  792

 Reversed flow on 12 faces (2.6% area) of pressure-outlet 4.

 Reversed flow on 14 faces (2.9% area) of pressure-outlet 5.
   209  7.7230e-03  3.1299e-03  1.3979e-03  7.1813e-03  7.7745e-03  2.1377e-03  0:02:27  791

 Reversed flow on 12 faces (2.6% area) of pressure-outlet 4.

 Reversed flow on 14 faces (2.9% area) of pressure-outlet 5.

  iter  continuity  x-velocity  y-velocity      energy           k       omega     time/iter
   210  7.7391e-03  3.1519e-03  1.3987e-03  7.2021e-03  7.7374e-03  2.1235e-03  0:01:57  790

 Reversed flow on 12 faces (2.6% area) of pressure-outlet 4.

 Reversed flow on 14 faces (2.9% area) of pressure-outlet 5.
   211  7.7532e-03  3.1700e-03  1.4003e-03  7.2205e-03  7.6994e-03  2.1088e-03  0:01:34  789

 Reversed flow on 12 faces (2.5% area) of pressure-outlet 4.

 Reversed flow on 14 faces (2.8% area) of pressure-outlet 5.
   212  7.7657e-03  3.1822e-03  1.4019e-03  7.2367e-03  7.6644e-03  2.0975e-03  0:01:15  788

 Reversed flow on 12 faces (2.5% area) of pressure-outlet 4.

 Reversed flow on 14 faces (2.8% area) of pressure-outlet 5.
   213  7.7803e-03  3.2010e-03  1.4067e-03  7.2547e-03  7.6315e-03  2.0839e-03  0:01:00  787

 Reversed flow on 12 faces (2.5% area) of pressure-outlet 4.

 Reversed flow on 13 faces (2.7% area) of pressure-outlet 5.
   214  7.7947e-03  3.2171e-03  1.4073e-03  7.2722e-03  7.6000e-03  2.0719e-03  0:00:48  786

 Reversed flow on 11 faces (2.4% area) of pressure-outlet 4.

 Reversed flow on 13 faces (2.7% area) of pressure-outlet 5.
   215  7.8090e-03  3.2375e-03  1.4118e-03  7.2895e-03  7.5709e-03  2.0600e-03  0:00:38  785

 Reversed flow on 11 faces (2.4% area) of pressure-outlet 4.

 Reversed flow on 14 faces (2.8% area) of pressure-outlet 5.
   216  7.8247e-03  3.2584e-03  1.4179e-03  7.3079e-03  7.5406e-03  2.0490e-03  0:00:31  784

 Reversed flow on 11 faces (2.4% area) of pressure-outlet 4.

 Reversed flow on 13 faces (2.6% area) of pressure-outlet 5.
   217  7.8418e-03  3.2772e-03  1.4230e-03  7.3277e-03  7.5076e-03  2.0387e-03  0:00:24  783

 Reversed flow on 11 faces (2.4% area) of pressure-outlet 4.

 Reversed flow on 13 faces (2.6% area) of pressure-outlet 5.
   218  7.8586e-03  3.2948e-03  1.4303e-03  7.3473e-03  7.4747e-03  2.0288e-03  0:02:56  782

 Reversed flow on 11 faces (2.4% area) of pressure-outlet 4.

 Reversed flow on 14 faces (2.8% area) of pressure-outlet 5.
   219  7.8757e-03  3.3167e-03  1.4390e-03  7.3668e-03  7.4437e-03  2.0166e-03  0:02:21  781

 Reversed flow on 10 faces (2.2% area) of pressure-outlet 4.

 Reversed flow on 13 faces (2.6% area) of pressure-outlet 5.
   220  7.8962e-03  3.3424e-03  1.4497e-03  7.3891e-03  7.4136e-03  2.0078e-03  0:01:52  780

 Reversed flow on 11 faces (2.3% area) of pressure-outlet 4.

 Reversed flow on 13 faces (2.6% area) of pressure-outlet 5.

  iter  continuity  x-velocity  y-velocity      energy           k       omega     time/iter
   221  7.9130e-03  3.3627e-03  1.4616e-03  7.4069e-03  7.3849e-03  1.9941e-03  0:01:30  779

 Reversed flow on 11 faces (2.3% area) of pressure-outlet 4.

 Reversed flow on 13 faces (2.6% area) of pressure-outlet 5.
   222  7.9379e-03  3.3858e-03  1.4756e-03  7.4323e-03  7.3590e-03  1.9844e-03  0:01:12  778

 Reversed flow on 11 faces (2.3% area) of pressure-outlet 4.

 Reversed flow on 13 faces (2.6% area) of pressure-outlet 5.
   223  7.9686e-03  3.4103e-03  1.4879e-03  7.4630e-03  7.3350e-03  1.9768e-03  0:00:57  777

 Reversed flow on 11 faces (2.3% area) of pressure-outlet 4.

 Reversed flow on 13 faces (2.6% area) of pressure-outlet 5.
   224  8.0017e-03  3.4359e-03  1.4993e-03  7.4954e-03  7.3123e-03  1.9692e-03  0:00:46  776

 Reversed flow on 10 faces (2.2% area) of pressure-outlet 4.

 Reversed flow on 13 faces (2.6% area) of pressure-outlet 5.
   225  8.0281e-03  3.4661e-03  1.5108e-03  7.5209e-03  7.2907e-03  1.9631e-03  0:00:37  775

 Reversed flow on 11 faces (2.3% area) of pressure-outlet 4.

 Reversed flow on 13 faces (2.6% area) of pressure-outlet 5.
   226  8.0577e-03  3.4955e-03  1.5231e-03  7.5494e-03  7.2714e-03  1.9529e-03  0:03:04  774

 Reversed flow on 11 faces (2.3% area) of pressure-outlet 4.

 Reversed flow on 14 faces (2.7% area) of pressure-outlet 5.
   227  8.0941e-03  3.5161e-03  1.5373e-03  7.5849e-03  7.2559e-03  1.9470e-03  0:02:27  773

 Reversed flow on 10 faces (2.1% area) of pressure-outlet 4.

 Reversed flow on 13 faces (2.5% area) of pressure-outlet 5.
   228  8.1316e-03  3.5408e-03  1.5516e-03  7.6216e-03  7.2452e-03  1.9390e-03  0:01:57  772

 Reversed flow on 10 faces (2.1% area) of pressure-outlet 4.

 Reversed flow on 13 faces (2.5% area) of pressure-outlet 5.
   229  8.1720e-03  3.5698e-03  1.5656e-03  7.6614e-03  7.2395e-03  1.9335e-03  0:01:34  771

 Reversed flow on 11 faces (2.3% area) of pressure-outlet 4.

 Reversed flow on 13 faces (2.5% area) of pressure-outlet 5.
   230  8.2157e-03  3.6045e-03  1.5796e-03  7.7046e-03  7.2417e-03  1.9288e-03  0:01:15  770

 Reversed flow on 10 faces (2.1% area) of pressure-outlet 4.

 Reversed flow on 13 faces (2.5% area) of pressure-outlet 5.
   231  8.2643e-03  3.6427e-03  1.5943e-03  7.7528e-03  7.2459e-03  1.9225e-03  0:01:00  769

 Reversed flow on 10 faces (2.1% area) of pressure-outlet 4.

 Reversed flow on 14 faces (2.7% area) of pressure-outlet 5.

  iter  continuity  x-velocity  y-velocity      energy           k       omega     time/iter
   232  8.3204e-03  3.6823e-03  1.6094e-03  7.8086e-03  7.2542e-03  1.9187e-03  0:00:48  768

 Reversed flow on 10 faces (2.1% area) of pressure-outlet 4.

 Reversed flow on 14 faces (2.7% area) of pressure-outlet 5.
   233  8.3802e-03  3.7224e-03  1.6261e-03  7.8688e-03  7.2671e-03  1.9127e-03  0:03:12  767

 Reversed flow on 10 faces (2.1% area) of pressure-outlet 4.

 Reversed flow on 13 faces (2.5% area) of pressure-outlet 5.
   234  8.4460e-03  3.7629e-03  1.6435e-03  7.9363e-03  7.2831e-03  1.9091e-03  0:02:33  766

 Reversed flow on 11 faces (2.2% area) of pressure-outlet 4.

 Reversed flow on 13 faces (2.5% area) of pressure-outlet 5.
   235  8.5215e-03  3.8104e-03  1.6621e-03  8.0150e-03  7.3062e-03  1.9023e-03  0:02:02  765

 Reversed flow on 10 faces (2.1% area) of pressure-outlet 4.

 Reversed flow on 14 faces (2.6% area) of pressure-outlet 5.
   236  8.6082e-03  3.8615e-03  1.6836e-03  8.1061e-03  7.3364e-03  1.8976e-03  0:01:38  764

 Reversed flow on 10 faces (2.1% area) of pressure-outlet 4.

 Reversed flow on 14 faces (2.6% area) of pressure-outlet 5.
   237  8.7149e-03  3.9121e-03  1.7048e-03  8.2179e-03  7.3760e-03  1.8970e-03  0:01:18  763

 Reversed flow on 10 faces (2.1% area) of pressure-outlet 4.

 Reversed flow on 13 faces (2.5% area) of pressure-outlet 5.
   238  8.8403e-03  3.9677e-03  1.7273e-03  8.3496e-03  7.4230e-03  1.8958e-03  0:01:02  762

 Reversed flow on 10 faces (2.1% area) of pressure-outlet 4.

 Reversed flow on 13 faces (2.5% area) of pressure-outlet 5.
   239  9.0013e-03  4.0205e-03  1.7509e-03  8.5179e-03  7.4759e-03  1.8926e-03  0:00:50  761

 Reversed flow on 10 faces (2.1% area) of pressure-outlet 4.

 Reversed flow on 14 faces (2.6% area) of pressure-outlet 5.
   240  9.1881e-03  4.0784e-03  1.7757e-03  8.7134e-03  7.5308e-03  1.8891e-03  0:00:40  760

 Reversed flow on 10 faces (2.1% area) of pressure-outlet 4.

 Reversed flow on 14 faces (2.6% area) of pressure-outlet 5.
   241  9.3975e-03  4.1332e-03  1.8004e-03  8.9335e-03  7.5948e-03  1.8877e-03  0:03:04  759

 Reversed flow on 10 faces (2.1% area) of pressure-outlet 4.

 Reversed flow on 13 faces (2.5% area) of pressure-outlet 5.
   242  9.6399e-03  4.1889e-03  1.8268e-03  9.1887e-03  7.6730e-03  1.8846e-03  0:02:27  758

 Reversed flow on 9 faces (1.9% area) of pressure-outlet 4.

 Reversed flow on 13 faces (2.5% area) of pressure-outlet 5.

  iter  continuity  x-velocity  y-velocity      energy           k       omega     time/iter
   243  9.9210e-03  4.2488e-03  1.8541e-03  9.4841e-03  7.7573e-03  1.8837e-03  0:01:57  757

 Reversed flow on 10 faces (2.1% area) of pressure-outlet 4.

 Reversed flow on 14 faces (2.6% area) of pressure-outlet 5.
   244  1.0249e-02  4.3121e-03  1.8840e-03  9.8273e-03  7.8540e-03  1.8830e-03  0:01:34  756

 Reversed flow on 10 faces (2.1% area) of pressure-outlet 4.

 Reversed flow on 13 faces (2.4% area) of pressure-outlet 5.
   245  1.0620e-02  4.3760e-03  1.9156e-03  1.0214e-02  7.9606e-03  1.8840e-03  0:01:15  755

 Reversed flow on 9 faces (1.9% area) of pressure-outlet 4.

 Reversed flow on 13 faces (2.4% area) of pressure-outlet 5.
   246  1.1039e-02  4.4402e-03  1.9487e-03  1.0649e-02  8.0704e-03  1.8826e-03  0:01:00  754

 Reversed flow on 9 faces (1.9% area) of pressure-outlet 4.

 Reversed flow on 13 faces (2.4% area) of pressure-outlet 5.
   247  1.1505e-02  4.4986e-03  1.9822e-03  1.1129e-02  8.1867e-03  1.8819e-03  0:00:48  753

 Reversed flow on 10 faces (2.0% area) of pressure-outlet 4.

 Reversed flow on 14 faces (2.6% area) of pressure-outlet 5.
   248  1.2013e-02  4.5590e-03  2.0184e-03  1.1652e-02  8.3174e-03  1.8811e-03  0:00:38  752

 Reversed flow on 9 faces (1.9% area) of pressure-outlet 4.

 Reversed flow on 13 faces (2.4% area) of pressure-outlet 5.
   249  1.2552e-02  4.6189e-03  2.0573e-03  1.2204e-02  8.4599e-03  1.8838e-03  0:00:30  751

 Reversed flow on 9 faces (1.9% area) of pressure-outlet 4.

 Reversed flow on 13 faces (2.4% area) of pressure-outlet 5.
   250  1.3122e-02  4.6764e-03  2.0980e-03  1.2786e-02  8.6159e-03  1.8866e-03  0:00:24  750

 Reversed flow on 9 faces (1.9% area) of pressure-outlet 4.

 Reversed flow on 13 faces (2.4% area) of pressure-outlet 5.
   251  1.3716e-02  4.7310e-03  2.1389e-03  1.3392e-02  8.7799e-03  1.8880e-03  0:02:49  749

 Reversed flow on 9 faces (1.9% area) of pressure-outlet 4.

 Reversed flow on 14 faces (2.5% area) of pressure-outlet 5.
   252  1.4340e-02  4.7831e-03  2.1808e-03  1.4026e-02  8.9425e-03  1.8889e-03  0:02:15  748

 Reversed flow on 9 faces (1.9% area) of pressure-outlet 4.

 Reversed flow on 13 faces (2.4% area) of pressure-outlet 5.
   253  1.4992e-02  4.8356e-03  2.2257e-03  1.4687e-02  9.1343e-03  1.8893e-03  0:01:48  747

 Reversed flow on 9 faces (1.9% area) of pressure-outlet 4.

 Reversed flow on 13 faces (2.4% area) of pressure-outlet 5.

  iter  continuity  x-velocity  y-velocity      energy           k       omega     time/iter
   254  1.5667e-02  4.8814e-03  2.2710e-03  1.5369e-02  9.3278e-03  1.8917e-03  0:01:26  746

 Reversed flow on 9 faces (1.9% area) of pressure-outlet 4.

 Reversed flow on 13 faces (2.4% area) of pressure-outlet 5.
   255  1.6356e-02  4.9220e-03  2.3188e-03  1.6063e-02  9.5509e-03  1.8971e-03  0:01:09  745

 Reversed flow on 8 faces (1.8% area) of pressure-outlet 4.

 Reversed flow on 13 faces (2.4% area) of pressure-outlet 5.
   256  1.7056e-02  4.9625e-03  2.3673e-03  1.6767e-02  9.7711e-03  1.8990e-03  0:00:55  744

 Reversed flow on 8 faces (1.8% area) of pressure-outlet 4.

 Reversed flow on 13 faces (2.4% area) of pressure-outlet 5.
   257  1.7769e-02  5.0044e-03  2.4161e-03  1.7482e-02  1.0017e-02  1.9020e-03  0:00:44  743

 Reversed flow on 9 faces (1.9% area) of pressure-outlet 4.

 Reversed flow on 13 faces (2.4% area) of pressure-outlet 5.
   258  1.8484e-02  5.0425e-03  2.4634e-03  1.8197e-02  1.0263e-02  1.9079e-03  0:00:35  742

 Reversed flow on 8 faces (1.7% area) of pressure-outlet 4.

 Reversed flow on 13 faces (2.4% area) of pressure-outlet 5.
   259  1.9219e-02  5.0735e-03  2.5119e-03  1.8930e-02  1.0543e-02  1.9143e-03  0:00:28  741

 Reversed flow on 8 faces (1.7% area) of pressure-outlet 4.

 Reversed flow on 12 faces (2.3% area) of pressure-outlet 5.
   260  1.9995e-02  5.1038e-03  2.5562e-03  1.9703e-02  1.0824e-02  1.9154e-03  0:02:50  740

 Reversed flow on 8 faces (1.7% area) of pressure-outlet 4.

 Reversed flow on 13 faces (2.4% area) of pressure-outlet 5.
   261  2.0816e-02  5.1296e-03  2.5963e-03  2.0519e-02  1.1105e-02  1.9190e-03  0:02:16  739

 Reversed flow on 7 faces (1.6% area) of pressure-outlet 4.

 Reversed flow on 13 faces (2.4% area) of pressure-outlet 5.
   262  2.1657e-02  5.1544e-03  2.6364e-03  2.1354e-02  1.1434e-02  1.9278e-03  0:01:49  738

 Reversed flow on 8 faces (1.7% area) of pressure-outlet 4.

 Reversed flow on 13 faces (2.4% area) of pressure-outlet 5.
   263  2.2520e-02  5.1754e-03  2.6721e-03  2.2208e-02  1.1759e-02  1.9348e-03  0:01:27  737

 Reversed flow on 8 faces (1.7% area) of pressure-outlet 4.

 Reversed flow on 12 faces (2.2% area) of pressure-outlet 5.
   264  2.3410e-02  5.1914e-03  2.7033e-03  2.3088e-02  1.2078e-02  1.9414e-03  0:01:09  736

 Reversed flow on 7 faces (1.6% area) of pressure-outlet 4.

 Reversed flow on 13 faces (2.4% area) of pressure-outlet 5.

  iter  continuity  x-velocity  y-velocity      energy           k       omega     time/iter
   265  2.4321e-02  5.2045e-03  2.7336e-03  2.3986e-02  1.2477e-02  1.9498e-03  0:00:55  735

 Reversed flow on 7 faces (1.6% area) of pressure-outlet 4.

 Reversed flow on 13 faces (2.4% area) of pressure-outlet 5.
   266  2.5266e-02  5.2118e-03  2.7624e-03  2.4916e-02  1.2776e-02  1.9551e-03  0:00:44  734

 Reversed flow on 7 faces (1.6% area) of pressure-outlet 4.

 Reversed flow on 13 faces (2.4% area) of pressure-outlet 5.
   267  2.6229e-02  5.2106e-03  2.7916e-03  2.5863e-02  1.3130e-02  1.9625e-03  0:00:35  733

 Reversed flow on 6 faces (1.5% area) of pressure-outlet 4.

 Reversed flow on 12 faces (2.2% area) of pressure-outlet 5.
   268  2.7183e-02  5.2030e-03  2.8235e-03  2.6798e-02  1.3585e-02  1.9691e-03  0:00:28  732

 Reversed flow on 7 faces (1.6% area) of pressure-outlet 4.

 Reversed flow on 12 faces (2.2% area) of pressure-outlet 5.
   269  2.8110e-02  5.1934e-03  2.8552e-03  2.7703e-02  1.3902e-02  1.9744e-03  0:02:49  731

 Reversed flow on 6 faces (1.5% area) of pressure-outlet 4.

 Reversed flow on 12 faces (2.2% area) of pressure-outlet 5.
   270  2.9014e-02  5.1800e-03  2.8841e-03  2.8583e-02  1.4206e-02  1.9849e-03  0:02:15  730

 Reversed flow on 6 faces (1.5% area) of pressure-outlet 4.

 Reversed flow on 12 faces (2.2% area) of pressure-outlet 5.
   271  2.9884e-02  5.1599e-03  2.9150e-03  2.9427e-02  1.4687e-02  1.9925e-03  0:01:48  729

 Reversed flow on 6 faces (1.5% area) of pressure-outlet 4.

 Reversed flow on 12 faces (2.2% area) of pressure-outlet 5.
   272  3.0687e-02  5.1358e-03  2.9446e-03  3.0201e-02  1.5039e-02  1.9953e-03  0:01:26  728

 Reversed flow on 5 faces (1.3% area) of pressure-outlet 4.

 Reversed flow on 11 faces (2.1% area) of pressure-outlet 5.
   273  3.1416e-02  5.1017e-03  2.9724e-03  3.0899e-02  1.5325e-02  1.9978e-03  0:01:09  727

 Reversed flow on 5 faces (1.3% area) of pressure-outlet 4.

 Reversed flow on 12 faces (2.2% area) of pressure-outlet 5.
   274  3.2046e-02  5.0669e-03  2.9965e-03  3.1496e-02  1.5720e-02  2.0033e-03  0:00:55  726

 Reversed flow on 4 faces (1.2% area) of pressure-outlet 4.

 Reversed flow on 12 faces (2.2% area) of pressure-outlet 5.
   275  3.2543e-02  5.0262e-03  3.0099e-03  3.1960e-02  1.6039e-02  2.0105e-03  0:00:44  725

 Reversed flow on 4 faces (1.2% area) of pressure-outlet 4.

 Reversed flow on 12 faces (2.2% area) of pressure-outlet 5.

  iter  continuity  x-velocity  y-velocity      energy           k       omega     time/iter
   276  3.2903e-02  4.9848e-03  3.0157e-03  3.2286e-02  1.6300e-02  2.0130e-03  0:00:35  724

 Reversed flow on 3 faces (1.1% area) of pressure-outlet 4.

 Reversed flow on 11 faces (2.1% area) of pressure-outlet 5.
   277  3.3128e-02  4.9419e-03  3.0147e-03  3.2477e-02  1.6675e-02  2.0176e-03  0:00:28  723

 Reversed flow on 3 faces (1.1% area) of pressure-outlet 4.

 Reversed flow on 11 faces (2.1% area) of pressure-outlet 5.
   278  3.3212e-02  4.9054e-03  3.0025e-03  3.2528e-02  1.6941e-02  2.0252e-03  0:02:47  722

 Reversed flow on 2 faces (1.0% area) of pressure-outlet 4.

 Reversed flow on 11 faces (2.1% area) of pressure-outlet 5.
   279  3.3130e-02  4.8619e-03  2.9859e-03  3.2414e-02  1.7224e-02  2.0281e-03  0:02:13  721

 Reversed flow on 2 faces (1.0% area) of pressure-outlet 4.

 Reversed flow on 11 faces (2.1% area) of pressure-outlet 5.
   280  3.2844e-02  4.8189e-03  2.9615e-03  3.2098e-02  1.7455e-02  2.0330e-03  0:01:46  720

 Reversed flow on 2 faces (1.0% area) of pressure-outlet 4.

 Reversed flow on 11 faces (2.1% area) of pressure-outlet 5.
   281  3.2374e-02  4.7741e-03  2.9275e-03  3.1600e-02  1.7621e-02  2.0395e-03  0:01:25  719

 Reversed flow on 2 faces (1.0% area) of pressure-outlet 4.

 Reversed flow on 11 faces (2.1% area) of pressure-outlet 5.
   282  3.1737e-02  4.7354e-03  2.8789e-03  3.0939e-02  1.7854e-02  2.0442e-03  0:01:08  718

 Reversed flow on 2 faces (1.0% area) of pressure-outlet 4.

 Reversed flow on 10 faces (2.0% area) of pressure-outlet 5.
   283  3.0916e-02  4.6988e-03  2.8135e-03  3.0097e-02  1.7999e-02  2.0507e-03  0:00:54  717

 Reversed flow on 2 faces (1.0% area) of pressure-outlet 4.

 Reversed flow on 10 faces (2.0% area) of pressure-outlet 5.
   284  2.9974e-02  4.6644e-03  2.7348e-03  2.9137e-02  1.8079e-02  2.0551e-03  0:00:43  716

 Reversed flow on 2 faces (1.0% area) of pressure-outlet 4.

 Reversed flow on 9 faces (1.8% area) of pressure-outlet 5.
   285  2.8911e-02  4.6323e-03  2.6386e-03  2.8060e-02  1.8159e-02  2.0568e-03  0:00:35  715

 Reversed flow on 2 faces (1.0% area) of pressure-outlet 4.

 Reversed flow on 10 faces (2.0% area) of pressure-outlet 5.
   286  2.7786e-02  4.6020e-03  2.5281e-03  2.6923e-02  1.8247e-02  2.0581e-03  0:02:50  714

 Reversed flow on 2 faces (1.0% area) of pressure-outlet 4.

 Reversed flow on 10 faces (2.0% area) of pressure-outlet 5.

  iter  continuity  x-velocity  y-velocity      energy           k       omega     time/iter
   287  2.6673e-02  4.5716e-03  2.4044e-03  2.5798e-02  1.8201e-02  2.0619e-03  0:02:16  713

 Reversed flow on 2 faces (1.0% area) of pressure-outlet 4.

 Reversed flow on 9 faces (1.8% area) of pressure-outlet 5.
   288  2.5642e-02  4.5498e-03  2.2767e-03  2.4754e-02  1.8130e-02  2.0639e-03  0:01:49  712

 Reversed flow on 2 faces (1.0% area) of pressure-outlet 4.

 Reversed flow on 9 faces (1.8% area) of pressure-outlet 5.
   289  2.4750e-02  4.5358e-03  2.1552e-03  2.3848e-02  1.8084e-02  2.0651e-03  0:01:27  711

 Reversed flow on 2 faces (1.0% area) of pressure-outlet 4.

 Reversed flow on 9 faces (1.8% area) of pressure-outlet 5.
   290  2.4033e-02  4.5250e-03  2.0500e-03  2.3114e-02  1.8022e-02  2.0664e-03  0:01:09  710

 Reversed flow on 2 faces (1.0% area) of pressure-outlet 4.

 Reversed flow on 8 faces (1.7% area) of pressure-outlet 5.
   291  2.3484e-02  4.5181e-03  1.9690e-03  2.2547e-02  1.7847e-02  2.0670e-03  0:00:55  709

 Reversed flow on 2 faces (1.0% area) of pressure-outlet 4.

 Reversed flow on 8 faces (1.7% area) of pressure-outlet 5.
   292  2.3062e-02  4.5201e-03  1.9155e-03  2.2106e-02  1.7695e-02  2.0662e-03  0:00:44  708

 Reversed flow on 2 faces (1.0% area) of pressure-outlet 4.

 Reversed flow on 8 faces (1.7% area) of pressure-outlet 5.
   293  2.2693e-02  4.5273e-03  1.8825e-03  2.1716e-02  1.7544e-02  2.0657e-03  0:00:35  707

 Reversed flow on 2 faces (1.0% area) of pressure-outlet 4.

 Reversed flow on 8 faces (1.7% area) of pressure-outlet 5.
   294  2.2305e-02  4.5357e-03  1.8639e-03  2.1307e-02  1.7363e-02  2.0651e-03  0:02:49  706

 Reversed flow on 2 faces (1.0% area) of pressure-outlet 4.

 Reversed flow on 7 faces (1.6% area) of pressure-outlet 5.
   295  2.1846e-02  4.5396e-03  1.8548e-03  2.0828e-02  1.7162e-02  2.0609e-03  0:02:15  705

 Reversed flow on 2 faces (1.0% area) of pressure-outlet 4.

 Reversed flow on 7 faces (1.6% area) of pressure-outlet 5.
   296  2.1302e-02  4.5404e-03  1.8488e-03  2.0265e-02  1.6950e-02  2.0595e-03  0:01:48  704

 Reversed flow on 2 faces (1.0% area) of pressure-outlet 4.

[...]
 Reversed flow on 2 faces (0.4% area) of pressure-outlet 5.
 11180  6.0905e-02  6.7600e-02  6.2669e-02  5.6647e-02  1.0843e-05  7.7933e-06  0:20:48 4177

 Reversed flow on 2 faces (0.4% area) of pressure-outlet 4.

 Reversed flow on 4 faces (0.8% area) of pressure-outlet 5.
 11181  5.5581e-02  6.3340e-02  5.5437e-02  5.0596e-02  1.0835e-05  7.7680e-06  0:30:33 4176

 Reversed flow on 4 faces (0.8% area) of pressure-outlet 4.

 Reversed flow on 4 faces (0.8% area) of pressure-outlet 5.

  iter  continuity  x-velocity  y-velocity      energy           k       omega     time/iter
 11182  6.1310e-02  6.5418e-02  5.5038e-02  5.6237e-02  1.0841e-05  7.8217e-06  0:24:26 4175

 Reversed flow on 4 faces (0.8% area) of pressure-outlet 4.

 Reversed flow on 4 faces (0.8% area) of pressure-outlet 5.
 11183  6.3343e-02  6.7653e-02  6.2908e-02  5.7953e-02  1.0843e-05  7.7937e-06  0:19:33 4174

 Reversed flow on 4 faces (0.8% area) of pressure-outlet 4.

 Reversed flow on 3 faces (0.6% area) of pressure-outlet 5.
 11184  6.1201e-02  7.0106e-02  6.5043e-02  5.6631e-02  1.0833e-05  7.7134e-06  0:29:32 4173

 Reversed flow on 3 faces (0.6% area) of pressure-outlet 4.

 Reversed flow on 2 faces (0.4% area) of pressure-outlet 5.
 11185  6.3237e-02  7.2280e-02  6.1498e-02  5.8801e-02  1.0829e-05  7.6974e-06  0:23:38 4172

 Reversed flow on 2 faces (0.4% area) of pressure-outlet 4.

 Reversed flow on 4 faces (0.8% area) of pressure-outlet 5.
 11186  5.9805e-02  7.1592e-02  5.4961e-02  5.4691e-02  1.0820e-05  7.6478e-06  0:32:48 4171

 Reversed flow on 4 faces (0.8% area) of pressure-outlet 4.

 Reversed flow on 4 faces (0.8% area) of pressure-outlet 5.
 11187  6.5885e-02  7.3970e-02  5.5145e-02  6.0595e-02  1.0824e-05  7.6909e-06  0:26:14 4170

 Reversed flow on 4 faces (0.8% area) of pressure-outlet 4.

 Reversed flow on 4 faces (0.8% area) of pressure-outlet 5.
 11188  6.7975e-02  7.5616e-02  6.3409e-02  6.2298e-02  1.0823e-05  7.6696e-06  0:20:59 4169

 Reversed flow on 4 faces (0.8% area) of pressure-outlet 4.

 Reversed flow on 3 faces (0.6% area) of pressure-outlet 5.
 11189  6.4998e-02  7.6658e-02  6.5834e-02  6.0077e-02  1.0821e-05  7.6017e-06  0:30:41 4168

 Reversed flow on 3 faces (0.6% area) of pressure-outlet 4.

 Reversed flow on 2 faces (0.4% area) of pressure-outlet 5.
 11190  6.5859e-02  7.8103e-02  6.2500e-02  6.1249e-02  1.0833e-05  7.6116e-06  0:24:32 4167

 Reversed flow on 2 faces (0.4% area) of pressure-outlet 4.

 Reversed flow on 4 faces (0.8% area) of pressure-outlet 5.
 11191  6.1586e-02  7.7101e-02  5.6366e-02  5.6501e-02  1.0845e-05  7.5702e-06  0:19:37 4166

 Reversed flow on 4 faces (0.8% area) of pressure-outlet 4.

 Reversed flow on 4 faces (0.8% area) of pressure-outlet 5.
 11192  6.7608e-02  8.1195e-02  5.7074e-02  6.2485e-02  1.0869e-05  7.6346e-06  0:29:35 4165

 Reversed flow on 4 faces (0.8% area) of pressure-outlet 4.

 Reversed flow on 4 faces (0.8% area) of pressure-outlet 5.

  iter  continuity  x-velocity  y-velocity      energy           k       omega     time/iter
 11193  6.9184e-02  8.3223e-02  6.5589e-02  6.3670e-02  1.0885e-05  7.6541e-06  0:23:39 4164

 Reversed flow on 4 faces (0.8% area) of pressure-outlet 4.

 Reversed flow on 3 faces (0.6% area) of pressure-outlet 5.
 11194  6.7680e-02  8.5266e-02  6.8295e-02  6.2661e-02  1.0893e-05  7.6420e-06  0:32:48 4163

 Reversed flow on 3 faces (0.6% area) of pressure-outlet 4.

 Reversed flow on 2 faces (0.4% area) of pressure-outlet 5.
 11195  6.9277e-02  8.4244e-02  6.5317e-02  6.3945e-02  1.0904e-05  7.7092e-06  0:26:14 4162

 Reversed flow on 2 faces (0.4% area) of pressure-outlet 4.

 Reversed flow on 4 faces (0.8% area) of pressure-outlet 5.
 11196  6.5802e-02  8.1869e-02  5.9564e-02  5.9596e-02  1.0909e-05  7.7522e-06  0:20:59 4161

 Reversed flow on 4 faces (0.8% area) of pressure-outlet 4.

 Reversed flow on 4 faces (0.8% area) of pressure-outlet 5.
 11197  7.1971e-02  8.3972e-02  5.9983e-02  6.5619e-02  1.0916e-05  7.8760e-06  0:30:39 4160

 Reversed flow on 4 faces (0.8% area) of pressure-outlet 4.

 Reversed flow on 4 faces (0.8% area) of pressure-outlet 5.
 11198  7.4947e-02  8.5389e-02  6.8019e-02  6.8188e-02  1.0917e-05  7.9386e-06  0:24:31 4159

 Reversed flow on 4 faces (0.8% area) of pressure-outlet 4.

 Reversed flow on 3 faces (0.6% area) of pressure-outlet 5.
 11199  7.3794e-02  8.5948e-02  7.0991e-02  6.7537e-02  1.0910e-05  7.9591e-06  0:19:36 4158

 Reversed flow on 3 faces (0.6% area) of pressure-outlet 4.

 Reversed flow on 2 faces (0.4% area) of pressure-outlet 5.
 11200  7.5851e-02  8.7114e-02  6.9043e-02  6.9633e-02  1.0916e-05  8.0452e-06  0:29:32 4157

 Reversed flow on 2 faces (0.4% area) of pressure-outlet 4.

 Reversed flow on 4 faces (0.8% area) of pressure-outlet 5.
 11201  7.0495e-02  8.3255e-02  6.1689e-02  6.3742e-02  1.0917e-05  8.0910e-06  0:23:37 4156

 Reversed flow on 4 faces (0.8% area) of pressure-outlet 4.

 Reversed flow on 4 faces (0.8% area) of pressure-outlet 5.
 11202  7.4745e-02  8.6233e-02  6.0190e-02  6.8363e-02  1.0936e-05  8.2284e-06  0:18:54 4155

 Reversed flow on 4 faces (0.8% area) of pressure-outlet 4.

 Reversed flow on 4 faces (0.8% area) of pressure-outlet 5.
 11203  7.5058e-02  8.6614e-02  6.6470e-02  6.8837e-02  1.0947e-05  8.3015e-06  0:28:58 4154

 Reversed flow on 4 faces (0.8% area) of pressure-outlet 4.

 Reversed flow on 3 faces (0.6% area) of pressure-outlet 5.

  iter  continuity  x-velocity  y-velocity      energy           k       omega     time/iter
 11204  7.2173e-02  8.8620e-02  6.7920e-02  6.7169e-02  1.0954e-05  8.3089e-06  0:23:10 4153

 Reversed flow on 3 faces (0.6% area) of pressure-outlet 4.

 Reversed flow on 2 faces (0.4% area) of pressure-outlet 5.
 11205  7.2831e-02  9.0192e-02  6.3842e-02  6.8453e-02  1.0966e-05  8.3697e-06  0:18:31 4152

 Reversed flow on 2 faces (0.4% area) of pressure-outlet 4.

 Reversed flow on 4 faces (0.8% area) of pressure-outlet 5.
 11206  6.8652e-02  8.9866e-02  5.6673e-02  6.4189e-02  1.0980e-05  8.3727e-06  0:28:39 4151

 Reversed flow on 4 faces (0.8% area) of pressure-outlet 4.

 Reversed flow on 4 faces (0.8% area) of pressure-outlet 5.
 11207  7.3957e-02  9.3360e-02  5.6198e-02  6.9601e-02  1.1011e-05  8.4617e-06  0:22:55 4150

 Reversed flow on 4 faces (0.8% area) of pressure-outlet 4.

 Reversed flow on 4 faces (0.8% area) of pressure-outlet 5.
 11208  7.5249e-02  9.4098e-02  6.3975e-02  7.0726e-02  1.1036e-05  8.4781e-06  0:32:10 4149

 Reversed flow on 4 faces (0.8% area) of pressure-outlet 4.

 Reversed flow on 3 faces (0.6% area) of pressure-outlet 5.
 11209  7.2531e-02  9.4031e-02  6.6086e-02  6.8773e-02  1.1056e-05  8.4587e-06  0:25:43 4148

 Reversed flow on 3 faces (0.6% area) of pressure-outlet 4.

 Reversed flow on 2 faces (0.4% area) of pressure-outlet 5.
 11210  7.2348e-02  9.2491e-02  6.2462e-02  6.8717e-02  1.1088e-05  8.4967e-06  0:20:34 4147

 Reversed flow on 2 faces (0.4% area) of pressure-outlet 4.

 Reversed flow on 4 faces (0.8% area) of pressure-outlet 5.
 11211  6.7291e-02  8.7184e-02  5.5903e-02  6.2996e-02  1.1115e-05  8.5015e-06  0:30:16 4146

 Reversed flow on 4 faces (0.8% area) of pressure-outlet 4.

 Reversed flow on 4 faces (0.8% area) of pressure-outlet 5.
 11212  7.2447e-02  8.7379e-02  5.6199e-02  6.7845e-02  1.1157e-05  8.5919e-06  0:24:13 4145

 Reversed flow on 4 faces (0.8% area) of pressure-outlet 4.

 Reversed flow on 4 faces (0.8% area) of pressure-outlet 5.
 11213  7.3889e-02  8.6653e-02  6.4305e-02  6.8737e-02  1.1187e-05  8.6131e-06  0:33:11 4144

 Reversed flow on 4 faces (0.8% area) of pressure-outlet 4.

 Reversed flow on 3 faces (0.6% area) of pressure-outlet 5.
 11214  7.0364e-02  8.6148e-02  6.6956e-02  6.5740e-02  1.1215e-05  8.6000e-06  0:26:32 4143

 Reversed flow on 3 faces (0.6% area) of pressure-outlet 4.

 Reversed flow on 2 faces (0.4% area) of pressure-outlet 5.

  iter  continuity  x-velocity  y-velocity      energy           k       omega     time/iter
 11215  7.1482e-02  8.7011e-02  6.4319e-02  6.6900e-02  1.1258e-05  8.6776e-06  0:21:13 4142

 Reversed flow on 2 faces (0.4% area) of pressure-outlet 4.

 Reversed flow on 4 faces (0.8% area) of pressure-outlet 5.
 11216  6.7948e-02  8.5354e-02  5.8868e-02  6.2718e-02  1.1298e-05  8.7144e-06  0:30:47 4141

 Reversed flow on 4 faces (0.8% area) of pressure-outlet 4.

 Reversed flow on 4 faces (0.8% area) of pressure-outlet 5.
 11217  7.3907e-02  8.7971e-02  6.0015e-02  6.8476e-02  1.1354e-05  8.8491e-06  0:24:37 4140

 Reversed flow on 4 faces (0.8% area) of pressure-outlet 4.

 Reversed flow on 4 faces (0.8% area) of pressure-outlet 5.
 11218  7.6187e-02  9.0077e-02  6.8398e-02  7.0340e-02  1.1410e-05  8.9186e-06  0:33:29 4139

 Reversed flow on 4 faces (0.8% area) of pressure-outlet 4.

 Reversed flow on 3 faces (0.6% area) of pressure-outlet 5.
 11219  7.4189e-02  9.0605e-02  7.1097e-02  6.8964e-02  1.1460e-05  8.9283e-06  0:26:47 4138

 Reversed flow on 3 faces (0.6% area) of pressure-outlet 4.

 Reversed flow on 2 faces (0.4% area) of pressure-outlet 5.
 11220  7.5336e-02  8.9909e-02  6.8569e-02  7.0273e-02  1.1519e-05  8.9938e-06  0:21:25 4137

 Reversed flow on 2 faces (0.4% area) of pressure-outlet 4.

 Reversed flow on 4 faces (0.8% area) of pressure-outlet 5.
 11221  6.9860e-02  8.3708e-02  6.2440e-02  6.4192e-02  1.1575e-05  9.0042e-06  0:30:55 4136

 Reversed flow on 4 faces (0.8% area) of pressure-outlet 4.

 Reversed flow on 4 faces (0.8% area) of pressure-outlet 5.
 11222  7.3442e-02  8.2573e-02  6.1923e-02  6.7701e-02  1.1631e-05  9.0792e-06  0:24:44 4135

 Reversed flow on 4 faces (0.8% area) of pressure-outlet 4.

 Reversed flow on 4 faces (0.8% area) of pressure-outlet 5.
 11223  7.4627e-02  8.3033e-02  6.8726e-02  6.8673e-02  1.1667e-05  9.0845e-06  0:19:47 4134

 Reversed flow on 4 faces (0.8% area) of pressure-outlet 4.

 Reversed flow on 3 faces (0.6% area) of pressure-outlet 5.
 11224  7.2430e-02  8.4294e-02  7.0205e-02  6.7310e-02  1.1697e-05  9.0280e-06  0:29:36 4133

 Reversed flow on 3 faces (0.6% area) of pressure-outlet 4.

 Reversed flow on 2 faces (0.4% area) of pressure-outlet 5.
 11225  7.2833e-02  8.4769e-02  6.6391e-02  6.8014e-02  1.1732e-05  9.0231e-06  0:23:40 4132

 Reversed flow on 2 faces (0.4% area) of pressure-outlet 4.

 Reversed flow on 4 faces (0.8% area) of pressure-outlet 5.

  iter  continuity  x-velocity  y-velocity      energy           k       omega     time/iter
 11226  6.7236e-02  8.0565e-02  5.9730e-02  6.1960e-02  1.1759e-05  8.9385e-06  0:18:56 4131

 Reversed flow on 4 faces (0.8% area) of pressure-outlet 4.

 Reversed flow on 4 faces (0.8% area) of pressure-outlet 5.
 11227  7.1588e-02  8.1643e-02  5.9197e-02  6.6370e-02  1.1794e-05  8.9468e-06  0:28:55 4130

 Reversed flow on 4 faces (0.8% area) of pressure-outlet 4.

 Reversed flow on 4 faces (0.8% area) of pressure-outlet 5.
 11228  7.2572e-02  8.1555e-02  6.6311e-02  6.7114e-02  1.1823e-05  8.8901e-06  0:23:07 4129

 Reversed flow on 4 faces (0.8% area) of pressure-outlet 4.

 Reversed flow on 3 faces (0.6% area) of pressure-outlet 5.
 11229  6.9948e-02  8.2096e-02  6.8167e-02  6.5373e-02  1.1843e-05  8.8231e-06  0:32:15 4128

 Reversed flow on 3 faces (0.6% area) of pressure-outlet 4.

 Reversed flow on 2 faces (0.4% area) of pressure-outlet 5.
 11230  7.0670e-02  8.2805e-02  6.4421e-02  6.6414e-02  1.1873e-05  8.8311e-06  0:25:48 4127

 Reversed flow on 2 faces (0.4% area) of pressure-outlet 4.

 Reversed flow on 4 faces (0.8% area) of pressure-outlet 5.
 11231  6.5200e-02  7.9291e-02  5.7530e-02  6.0507e-02  1.1899e-05  8.8019e-06  0:20:38 4126

 Reversed flow on 4 faces (0.8% area) of pressure-outlet 4.

 Reversed flow on 4 faces (0.8% area) of pressure-outlet 5.
 11232  6.8668e-02  7.9132e-02  5.6870e-02  6.3887e-02  1.1943e-05  8.8639e-06  0:30:15 4125

 Reversed flow on 4 faces (0.8% area) of pressure-outlet 4.

 Reversed flow on 4 faces (0.8% area) of pressure-outlet 5.
 11233  6.9272e-02  7.8410e-02  6.4438e-02  6.4255e-02  1.1974e-05  8.8669e-06  0:24:12 4124

 Reversed flow on 4 faces (0.8% area) of pressure-outlet 4.

 Reversed flow on 3 faces (0.6% area) of pressure-outlet 5.
 11234  6.6583e-02  7.9559e-02  6.6382e-02  6.2496e-02  1.1994e-05  8.8403e-06  0:33:06 4123

 Reversed flow on 3 faces (0.6% area) of pressure-outlet 4.

 Reversed flow on 2 faces (0.4% area) of pressure-outlet 5.
 11235  6.7773e-02  8.0673e-02  6.2741e-02  6.3949e-02  1.2022e-05  8.8983e-06  0:26:28 4122

 Reversed flow on 2 faces (0.4% area) of pressure-outlet 4.

 Reversed flow on 4 faces (0.8% area) of pressure-outlet 5.
 11236  6.3600e-02  7.8860e-02  5.6334e-02  5.9273e-02  1.2042e-05  8.9050e-06  0:21:10 4121

 Reversed flow on 4 faces (0.8% area) of pressure-outlet 4.

 Reversed flow on 4 faces (0.8% area) of pressure-outlet 5.

  iter  continuity  x-velocity  y-velocity      energy           k       omega     time/iter
 11237  6.8776e-02  8.0037e-02  5.6805e-02  6.4233e-02  1.2069e-05  8.9955e-06  0:30:40 4120

 Reversed flow on 4 faces (0.8% area) of pressure-outlet 4.

 Reversed flow on 4 faces (0.8% area) of pressure-outlet 5.
 11238  7.0347e-02  8.0163e-02  6.5226e-02  6.5403e-02  1.2086e-05  9.0211e-06  0:24:32 4119

 Reversed flow on 4 faces (0.8% area) of pressure-outlet 4.

 Reversed flow on 3 faces (0.6% area) of pressure-outlet 5.
 11239  6.8406e-02  8.1784e-02  6.7970e-02  6.4238e-02  1.2096e-05  8.9926e-06  0:19:37 4118

 Reversed flow on 3 faces (0.6% area) of pressure-outlet 4.

 Reversed flow on 2 faces (0.4% area) of pressure-outlet 5.
 11240  6.8635e-02  8.0788e-02  6.4998e-02  6.4613e-02  1.2113e-05  9.0172e-06  0:29:25 4117

 Reversed flow on 2 faces (0.4% area) of pressure-outlet 4.

 Reversed flow on 4 faces (0.8% area) of pressure-outlet 5.
 11241  6.3844e-02  7.6979e-02  5.8953e-02  5.9261e-02  1.2128e-05  9.0018e-06  0:23:31 4116

 Reversed flow on 4 faces (0.8% area) of pressure-outlet 4.

 Reversed flow on 4 faces (0.8% area) of pressure-outlet 5.
 11242  6.9423e-02  7.8394e-02  5.9352e-02  6.4622e-02  1.2157e-05  9.0595e-06  0:32:32 4115

 Reversed flow on 4 faces (0.8% area) of pressure-outlet 4.

 Reversed flow on 4 faces (0.8% area) of pressure-outlet 5.
 11243  7.1304e-02  7.9020e-02  6.7664e-02  6.6054e-02  1.2182e-05  9.0578e-06  0:26:01 4114

 Reversed flow on 4 faces (0.8% area) of pressure-outlet 4.

 Reversed flow on 3 faces (0.6% area) of pressure-outlet 5.
 11244  7.0081e-02  8.0561e-02  7.0489e-02  6.5356e-02  1.2196e-05  9.0039e-06  0:20:49 4113

 Reversed flow on 3 faces (0.6% area) of pressure-outlet 4.

 Reversed flow on 2 faces (0.4% area) of pressure-outlet 5.
 11245  7.1115e-02  8.1637e-02  6.6309e-02  6.6606e-02  1.2213e-05  9.0402e-06  0:30:21 4112

 Reversed flow on 2 faces (0.4% area) of pressure-outlet 4.

 Reversed flow on 4 faces (0.8% area) of pressure-outlet 5.
 11246  6.6275e-02  7.9213e-02  5.8749e-02  6.1378e-02  1.2225e-05  9.0436e-06  0:24:16 4111

 Reversed flow on 4 faces (0.8% area) of pressure-outlet 4.

 Reversed flow on 4 faces (0.8% area) of pressure-outlet 5.
 11247  7.0787e-02  8.1405e-02  5.7679e-02  6.5991e-02  1.2246e-05  9.1172e-06  0:19:25 4110

 Reversed flow on 4 faces (0.8% area) of pressure-outlet 4.

 Reversed flow on 4 faces (0.8% area) of pressure-outlet 5.

  iter  continuity  x-velocity  y-velocity      energy           k       omega     time/iter
 11248  7.1415e-02  8.2199e-02  6.4814e-02  6.6525e-02  1.2250e-05  9.1081e-06  0:29:13 4109

 Reversed flow on 4 faces (0.8% area) of pressure-outlet 4.

 Reversed flow on 3 faces (0.6% area) of pressure-outlet 5.
 11249  6.7563e-02  8.1376e-02  6.6441e-02  6.3596e-02  1.2240e-05  9.0337e-06  0:23:22 4108

 Reversed flow on 3 faces (0.6% area) of pressure-outlet 4.

 Reversed flow on 2 faces (0.4% area) of pressure-outlet 5.
 11250  6.7207e-02  7.9721e-02  6.2418e-02  6.3578e-02  1.2234e-05  9.0120e-06  0:18:42 4107

 Reversed flow on 2 faces (0.4% area) of pressure-outlet 4.

 Reversed flow on 4 faces (0.8% area) of pressure-outlet 5.
 11251  6.1961e-02  7.5556e-02  5.5351e-02  5.7950e-02  1.2218e-05  8.9360e-06  0:28:38 4106

 Reversed flow on 4 faces (0.8% area) of pressure-outlet 4.

 Reversed flow on 4 faces (0.8% area) of pressure-outlet 5.
 11252  6.7042e-02  7.6547e-02  5.4993e-02  6.2900e-02  1.2210e-05  8.9509e-06  0:22:54 4105
Done.
(cx-gui-do cx-activate-item "MenuBar*ExportSubMenu*Solution Data...")
(cx-gui-do cx-set-list-selections "Export*Table1*Table2*Table4*List1(Quantities)" '( 6 9 10 30 44 47 49 83 104))
(cx-gui-do cx-activate-item "Export*Table1*Table2*Table4*List1(Quantities)")
(cx-gui-do cx-set-list-selections "Export*Table1*Table2*Table4*List1(Quantities)" '( 6 9 10 30 44 47 49 83 84 104))
(cx-gui-do cx-activate-item "Export*Table1*Table2*Table4*List1(Quantities)")
(cx-gui-do cx-set-list-selections "Export*Table1*Table1*DropDownList2(File Type)" '( 1))
(cx-gui-do cx-activate-item "Export*Table1*Table1*DropDownList2(File Type)")
(cx-gui-do cx-set-toggle-button2 "Export*Table1*Table2*Table1*ToggleBox4(Location)*Cell Center" #t)
(cx-gui-do cx-activate-item "Export*Table1*Table2*Table1*ToggleBox4(Location)*Cell Center")
(cx-gui-do cx-set-toggle-button2 "Export*Table1*Table2*Table1*ToggleBox4(Location)*Node" #t)
(cx-gui-do cx-activate-item "Export*Table1*Table2*Table1*ToggleBox4(Location)*Node")
(cx-gui-do cx-activate-item "Export*PanelButtons*PushButton1(OK)")
(cx-gui-do cx-set-file-dialog-entries "Select File" '( "mod.txt") "ASCII Files ()")
Writing "E:/isolated_aerofoils/r150_cwl_90/RANS/300k_tripped_5/mod.txt"...
Writing information to ascii file ...
Done.

(cx-gui-do cx-activate-item "Export*PanelButtons*PushButton1(OK)")
(cx-gui-do cx-set-file-dialog-entries "Select File" '( "mod.txt") "ASCII Files ()")
(cx-gui-do cx-activate-item "Question*OK")
Writing "E:/isolated_aerofoils/r150_cwl_90/RANS/300k_tripped_5/mod.txt"...
Writing information to ascii file ...
Done.

(cx-gui-do cx-activate-item "Export*PanelButtons*PushButton2(Cancel)")
(cx-gui-do cx-set-list-tree-selections "NavigationPane*List_Tree1" (list "Results|Graphics|Contours|contour-1"))
(cx-gui-do cx-set-list-tree-selections "NavigationPane*List_Tree1" (list "Results|Graphics|Contours|contour-1"))
(cx-gui-do cx-activate-item "NavigationPane*List_Tree1")
(cx-gui-do cx-set-list-tree-selections "NavigationPane*List_Tree1" (list "Results|Graphics|Contours|contour-1"))
(cx-gui-do cx-set-list-selections "Contours*Table1*Frame3*Table1*DropDownList1(Contours of)" '( 8))
(cx-gui-do cx-activate-item "Contours*Table1*Frame3*Table1*DropDownList1(Contours of)")
(cx-gui-do cx-set-list-selections "Contours*Table1*Frame3*Table1*DropDownList1(Contours of)" '( 7))
(cx-gui-do cx-activate-item "Contours*Table1*Frame3*Table1*DropDownList1(Contours of)")
(cx-gui-do cx-set-list-selections "Contours*Table1*Frame3*Table1*DropDownList2" '( 2))
(cx-gui-do cx-activate-item "Contours*Table1*Frame3*Table1*DropDownList2")
(cx-gui-do cx-activate-item "Contours*PanelButtons*PushButton1(OK)")
(cx-use-window-id 51)
(cx-use-window-id 51)
(dolly-camera -0.110763 0.47121 0)
(cx-use-window-id 51)
(dolly-camera 0.600271 -0.0211344 0)
(cx-use-window-id 51)
(dolly-camera 0.0842746 0.0317007 0)
(cx-gui-do cx-activate-item "Contours*PanelButtons*PushButton2(Cancel)")
(cx-gui-do cx-activate-item "MenuBar*WriteSubMenu*Data...")
(cx-gui-do cx-set-file-dialog-entries "Select File" '( "mod.dat") "All Data Files (*.dat*)")
Writing "E:/isolated_aerofoils/r150_cwl_90/RANS/300k_tripped_5/mod.dat"...
Done.

/exit y

Posting ANSYS Product Improvement Program performance data 
Done.
(cx-gui-do cx-activate-item "Question*OK")
