
              Welcome to ANSYS Fluent 2021 R2

              Copyright 1987-2021 ANSYS, Inc. All Rights Reserved.
              Unauthorized use, distribution or duplication is prohibited.
              This product is subject to U.S. laws governing export and re-export.
              For full Legal Notice, see documentation.

Build Time: May 28 2021 13:54:56 EDT  Build Id: 10201  
 

     --------------------------------------------------------------
     This is an academic version of ANSYS FLUENT. Usage of this product
     license is limited to the terms and conditions specified in your ANSYS
     license form, additional terms section.
     --------------------------------------------------------------
Host spawning Node 0 on machine "WL-CH-009" (win64).

-------------------------------------------------------------------------------
ID    Hostname   Core   O.S.         PID    Vendor                       
-------------------------------------------------------------------------------
n31   WL-CH-009  32/36  Windows-x64  35752  Intel(R) Xeon(R) W-2295      
n30   WL-CH-009  31/36  Windows-x64  9332   Intel(R) Xeon(R) W-2295      
n29   WL-CH-009  30/36  Windows-x64  36048  Intel(R) Xeon(R) W-2295      
n28   WL-CH-009  29/36  Windows-x64  35936  Intel(R) Xeon(R) W-2295      
n27   WL-CH-009  28/36  Windows-x64  32268  Intel(R) Xeon(R) W-2295      
n26   WL-CH-009  27/36  Windows-x64  35500  Intel(R) Xeon(R) W-2295      
n25   WL-CH-009  26/36  Windows-x64  16448  Intel(R) Xeon(R) W-2295      
n24   WL-CH-009  25/36  Windows-x64  28376  Intel(R) Xeon(R) W-2295      
n23   WL-CH-009  24/36  Windows-x64  34612  Intel(R) Xeon(R) W-2295      
n22   WL-CH-009  23/36  Windows-x64  40592  Intel(R) Xeon(R) W-2295      
n21   WL-CH-009  22/36  Windows-x64  7504   Intel(R) Xeon(R) W-2295      
n20   WL-CH-009  21/36  Windows-x64  23972  Intel(R) Xeon(R) W-2295      
n19   WL-CH-009  20/36  Windows-x64  38368  Intel(R) Xeon(R) W-2295      
n18   WL-CH-009  19/36  Windows-x64  1924   Intel(R) Xeon(R) W-2295      
n17   WL-CH-009  18/36  Windows-x64  42432  Intel(R) Xeon(R) W-2295      
n16   WL-CH-009  17/36  Windows-x64  44744  Intel(R) Xeon(R) W-2295      
n15   WL-CH-009  16/36  Windows-x64  17008  Intel(R) Xeon(R) W-2295      
n14   WL-CH-009  15/36  Windows-x64  33204  Intel(R) Xeon(R) W-2295      
n13   WL-CH-009  14/36  Windows-x64  23232  Intel(R) Xeon(R) W-2295      
n12   WL-CH-009  13/36  Windows-x64  45456  Intel(R) Xeon(R) W-2295      
-------------------------------------------------------------------------------
ID    Hostname   Core   O.S.         PID    Vendor                       
-------------------------------------------------------------------------------
n11   WL-CH-009  12/36  Windows-x64  36940  Intel(R) Xeon(R) W-2295      
n10   WL-CH-009  11/36  Windows-x64  40028  Intel(R) Xeon(R) W-2295      
n9    WL-CH-009  10/36  Windows-x64  19788  Intel(R) Xeon(R) W-2295      
n8    WL-CH-009  9/36   Windows-x64  19872  Intel(R) Xeon(R) W-2295      
n7    WL-CH-009  8/36   Windows-x64  39952  Intel(R) Xeon(R) W-2295      
n6    WL-CH-009  7/36   Windows-x64  14056  Intel(R) Xeon(R) W-2295      
n5    WL-CH-009  6/36   Windows-x64  15868  Intel(R) Xeon(R) W-2295      
n4    WL-CH-009  5/36   Windows-x64  24220  Intel(R) Xeon(R) W-2295      
n3    WL-CH-009  4/36   Windows-x64  37664  Intel(R) Xeon(R) W-2295      
n2    WL-CH-009  3/36   Windows-x64  7008   Intel(R) Xeon(R) W-2295      
n1    WL-CH-009  2/36   Windows-x64  35284  Intel(R) Xeon(R) W-2295      
n0*   WL-CH-009  1/36   Windows-x64  36504  Intel(R) Xeon(R) W-2295      
host  WL-CH-009         Windows-x64  32304  Intel(R) Xeon(R) W-2295      

MPI Option Selected: intel
Selected system interconnect: default
-------------------------------------------------------------------------------

Cleanup script file is E:\\MATLAB\\RANS_optimisation\\cleanup-fluent-WL-CH-009-32304.bat

Posting ANSYS Product Improvement Program startup data
Done.

Reading journal file E:\MATLAB\RANS_optimisation\run12\fluent_input.jou...

> /sync-chdir E:\MATLAB\RANS_optimisation\run12

> /file/read-case "grid.msh"
Reading "grid.msh"...

Buffering for file scan...

  112722 quadrilateral cells, zone  9.
  224998 2D interior faces, zone  2.
Warning: Reversing 238 faces, zone  2.
     237 2D pressure-inlet faces, zone  3.
Warning: Reversing 237 faces, zone  3.
     477 2D pressure-outlet faces, zone  4.
Warning: Reversing 477 faces, zone  4.
     477 2D pressure-outlet faces, zone  5.
     207 2D pressure-outlet faces, zone  6.
     254 2D wall faces, zone  7.
Warning: Reversing 15 faces, zone  7.
     252 2D wall faces, zone  8.
Warning: Reversing 223 faces, zone  8.
  113674 nodes.

Building...
     mesh
	auto partitioning mesh by Metis (fast),
	distributing mesh
		parts................................,
		faces................................,
		nodes................................,
		cells................................,
        bandwidth reduction using Reverse Cuthill-McKee: 2716/83 = 32.7229
     materials,
     interface,
     domains,
     zones,
	fluid-9
	wall-8
	wall-7
	pressure-outlet-6
	pressure-outlet-5
	pressure-outlet-4
	pressure-inlet-3
	interior-2
     parallel,
Done.

Preparing mesh for display...
Done.
 

> /define/boundary-conditions/modify-zones/zone-name 3 inlet 

> /define/boundary-conditions/modify-zones/zone-name 4 upper 

> /define/boundary-conditions/modify-zones/zone-name 5 lower 

> /define/boundary-conditions/modify-zones/zone-name 6 outlet

> /define/boundary-conditions/modify-zones/zone-name 7 upper-blade

> /define/boundary-conditions/modify-zones/zone-name 8 lower-blade

> /define/materials/change-create air air air is a fluid
yes 
Density
ideal-gas no data required.

yes 
Cp (Specific Heat)
constant 1005 
yes 
Thermal Conductivity
expression "DynamicViscosity*1005 [J/(kg K)]/0.72"
 yes 
Viscosity
sutherland three-coefficient-method 5.83247e-04 273 110.4 
no no no

Note: Enabling energy equation as required by material density method.

> /define/operating-conditions/operating-pressure 0

> /define/models/viscous/kw-sst? yes

> /define/boundary-conditions/zone-type inlet pressure-inlet 

> /define/boundary-conditions/pressure-inlet (inlet)
inlet yes no 74575.2 no 46984 no 300 no yes no no yes 0.5 1

> /define/boundary-conditions/zone-type outlet pressure-outlet 

> /define/boundary-conditions/bc-settings/pressure-outlet 0. 65 

> /define/boundary-conditions/pressure-outlet (outlet upper lower)
outlet yes no 46984 no 300 no yes no no yes 0.5 1 yes no no

> /define/boundary-conditions/copy-bc outlet (upper lower)Copy outlet boundary conditions to lower
Copy outlet boundary conditions to upper


> /define/boundary-conditions/wall (upper-blade lower-blade)
upper-blade 0 no 0 no no no 0 no no no no 0 no 0.5 no 1

> /define/boundary-conditions/copy-bc upper-blade (lower-blade)Copy upper-blade boundary conditions to lower-blade


> /define/models/solver/densit-based-implicit yes

> /file/read-data E:\MATLAB\RANS_optimisation\clean.dat

Reading "E:\MATLAB\RANS_optimisation\clean.dat"...



Parallel variables...
Done.

> ;/solve/initialize/initialize-flow
;/solve/initialize/compute-defaults/pressure-inlet inlet
;/solve/initialize/initialize-flow yes
;/solve/initialize/hyb-initialization
/solve/iterate 2000

  iter  continuity  x-velocity  y-velocity      energy           k       omega     time/iter
  2419  9.9521e-04  3.5719e-04  6.8654e-05  9.7828e-04  1.7105e-04  4.2984e-05  0:00:00 2000
  2420  9.1051e-02  6.1409e-02  5.4837e-02  9.1055e-02  4.0523e-03  1.1961e-02  0:33:19 1999
  2421  7.6831e-02  4.6672e-02  5.2861e-02  7.7253e-02  3.8676e-03  1.0000e-02  0:26:38 1998
  2422  5.9531e-02  3.2759e-02  5.0938e-02  5.9788e-02  3.6837e-03  7.9381e-03  0:21:18 1997
  2423  4.5668e-02  2.4714e-02  4.4450e-02  4.5404e-02  3.4961e-03  6.4390e-03  0:17:02 1996
  2424  3.6175e-02  2.0687e-02  3.6204e-02  3.5614e-02  3.3055e-03  5.9841e-03  0:13:37 1995
  2425  2.9918e-02  1.8480e-02  2.8479e-02  2.9385e-02  3.1138e-03  5.5145e-03  0:10:53 1994
  2426  2.5855e-02  1.6849e-02  2.2309e-02  2.5501e-02  2.9294e-03  4.9632e-03  0:08:42 1993
  2427  2.3287e-02  1.5357e-02  1.7837e-02  2.3118e-02  2.7528e-03  4.4238e-03  0:06:58 1992
  2428  2.1585e-02  1.3906e-02  1.4838e-02  2.1549e-02  2.5919e-03  3.9503e-03  0:05:34 1991
  2429  2.0258e-02  1.2470e-02  1.2927e-02  2.0299e-02  2.4476e-03  3.4807e-03  0:04:27 1990

  iter  continuity  x-velocity  y-velocity      energy           k       omega     time/iter
  2430  1.9053e-02  1.1090e-02  1.1708e-02  1.9125e-02  2.3195e-03  3.0448e-03  0:10:11 1989
  2431  1.7868e-02  9.7829e-03  1.0859e-02  1.7938e-02  2.2089e-03  2.6858e-03  0:08:09 1988
  2432  1.6686e-02  8.5996e-03  1.0185e-02  1.6732e-02  2.1145e-03  2.4467e-03  0:06:31 1987
  2433  1.5537e-02  7.5715e-03  9.5857e-03  1.5545e-02  2.0335e-03  2.2812e-03  0:05:13 1986
  2434  1.4459e-02  6.7299e-03  9.0104e-03  1.4420e-02  1.9620e-03  2.1507e-03  0:04:10 1985
  2435  1.3483e-02  6.1155e-03  8.4547e-03  1.3395e-02  1.8980e-03  2.0688e-03  0:03:20 1984
  2436  1.2602e-02  5.7128e-03  7.9013e-03  1.2468e-02  1.8386e-03  2.0316e-03  0:02:40 1983
  2437  1.1822e-02  5.5265e-03  7.3756e-03  1.1644e-02  1.7821e-03  2.0050e-03  0:02:08 1982
  2438  1.1128e-02  5.4926e-03  6.8824e-03  1.0911e-02  1.7286e-03  1.9830e-03  0:01:42 1981
  2439  1.0524e-02  5.5557e-03  6.4484e-03  1.0271e-02  1.6781e-03  1.9697e-03  0:01:22 1980
  2440  1.0016e-02  5.6673e-03  6.0785e-03  9.7305e-03  1.6301e-03  1.9598e-03  0:07:41 1979

  iter  continuity  x-velocity  y-velocity      energy           k       omega     time/iter
  2441  9.6237e-03  5.7817e-03  5.7788e-03  9.3098e-03  1.5860e-03  1.9493e-03  0:06:09 1978
  2442  9.3793e-03  5.8783e-03  5.5440e-03  9.0400e-03  1.5472e-03  1.9298e-03  0:04:55 1977
  2443  9.3204e-03  5.9421e-03  5.3569e-03  8.9593e-03  1.5124e-03  1.9088e-03  0:03:56 1976
  2444  9.4972e-03  5.9729e-03  5.2115e-03  9.1193e-03  1.4809e-03  1.8933e-03  0:03:08 1975
  2445  9.9410e-03  5.9740e-03  5.1056e-03  9.5524e-03  1.4541e-03  1.8774e-03  0:02:31 1974
  2446  1.0643e-02  5.9562e-03  5.0240e-03  1.0249e-02  1.4313e-03  1.8581e-03  0:02:01 1973
  2447  1.1573e-02  5.9271e-03  4.9552e-03  1.1177e-02  1.4122e-03  1.8380e-03  0:01:36 1972
  2448  1.2673e-02  5.8966e-03  4.8872e-03  1.2277e-02  1.3977e-03  1.8180e-03  0:01:17 1971
  2449  1.3895e-02  5.8665e-03  4.7946e-03  1.3500e-02  1.3857e-03  1.7975e-03  0:01:02 1970
  2450  1.5191e-02  5.8431e-03  4.6856e-03  1.4799e-02  1.3776e-03  1.7800e-03  0:07:23 1969
  2451  1.6487e-02  5.8174e-03  4.5614e-03  1.6097e-02  1.3717e-03  1.7662e-03  0:05:54 1968

  iter  continuity  x-velocity  y-velocity      energy           k       omega     time/iter
  2452  1.7713e-02  5.7999e-03  4.4185e-03  1.7328e-02  1.3672e-03  1.7553e-03  0:04:43 1967
  2453  1.8815e-02  5.7831e-03  4.2650e-03  1.8437e-02  1.3642e-03  1.7401e-03  0:03:47 1966
  2454  1.9771e-02  5.7578e-03  4.0904e-03  1.9401e-02  1.3618e-03  1.7258e-03  0:03:01 1965
  2455  2.0612e-02  5.7227e-03  3.9110e-03  2.0252e-02  1.3601e-03  1.7139e-03  0:02:25 1964
  2456  2.1321e-02  5.6942e-03  3.7229e-03  2.0974e-02  1.3586e-03  1.7075e-03  0:01:56 1963
  2457  2.1881e-02  5.6779e-03  3.5393e-03  2.1548e-02  1.3575e-03  1.7043e-03  0:01:33 1962
  2458  2.2277e-02  5.6726e-03  3.3782e-03  2.1960e-02  1.3569e-03  1.7017e-03  0:01:14 1961
  2459  2.2479e-02  5.6766e-03  3.2378e-03  2.2180e-02  1.3569e-03  1.6987e-03  0:00:59 1960
  2460  2.2484e-02  5.6697e-03  3.1238e-03  2.2202e-02  1.3573e-03  1.6951e-03  0:07:19 1959
  2461  2.2324e-02  5.6440e-03  3.0337e-03  2.2059e-02  1.3585e-03  1.6966e-03  0:05:51 1958
  2462  2.2029e-02  5.5994e-03  2.9662e-03  2.1781e-02  1.3595e-03  1.6964e-03  0:04:41 1957

  iter  continuity  x-velocity  y-velocity      energy           k       omega     time/iter
  2463  2.1636e-02  5.5438e-03  2.9162e-03  2.1404e-02  1.3610e-03  1.6939e-03  0:03:44 1956
  2464  2.1164e-02  5.4695e-03  2.8963e-03  2.0946e-02  1.3618e-03  1.6922e-03  0:03:00 1955
  2465  2.0615e-02  5.3942e-03  2.8897e-03  2.0411e-02  1.3638e-03  1.6881e-03  0:02:24 1954
  2466  1.9984e-02  5.3191e-03  2.8928e-03  1.9792e-02  1.3652e-03  1.6819e-03  0:01:55 1953
  2467  1.9283e-02  5.2422e-03  2.8975e-03  1.9103e-02  1.3673e-03  1.6751e-03  0:01:32 1952
  2468  1.8528e-02  5.1627e-03  2.9164e-03  1.8357e-02  1.3684e-03  1.6727e-03  0:01:13 1951
  2469  1.7726e-02  5.0771e-03  2.9315e-03  1.7563e-02  1.3697e-03  1.6685e-03  0:00:59 1950
  2470  1.6895e-02  4.9799e-03  2.9433e-03  1.6737e-02  1.3703e-03  1.6620e-03  0:00:47 1949
  2471  1.6049e-02  4.8789e-03  2.9463e-03  1.5894e-02  1.3706e-03  1.6450e-03  0:07:07 1948
  2472  1.5199e-02  4.7716e-03  2.9408e-03  1.5047e-02  1.3702e-03  1.6292e-03  0:05:42 1947
  2473  1.4361e-02  4.6614e-03  2.9400e-03  1.4210e-02  1.3697e-03  1.6167e-03  0:04:33 1946

  iter  continuity  x-velocity  y-velocity      energy           k       omega     time/iter
  2474  1.3534e-02  4.5553e-03  2.9300e-03  1.3384e-02  1.3691e-03  1.6063e-03  0:03:38 1945
  2475  1.2728e-02  4.4550e-03  2.9097e-03  1.2579e-02  1.3682e-03  1.5924e-03  0:02:55 1944
  2476  1.1964e-02  4.3630e-03  2.8941e-03  1.1814e-02  1.3671e-03  1.5773e-03  0:02:20 1943
  2477  1.1267e-02  4.2733e-03  2.8762e-03  1.1118e-02  1.3656e-03  1.5607e-03  0:01:52 1942
  2478  1.0640e-02  4.1886e-03  2.8546e-03  1.0494e-02  1.3640e-03  1.5425e-03  0:01:29 1941
  2479  1.0059e-02  4.1053e-03  2.8223e-03  9.9151e-03  1.3623e-03  1.5261e-03  0:01:11 1940
  2480  9.5737e-03  4.0206e-03  2.7910e-03  9.4345e-03  1.3610e-03  1.5122e-03  0:00:57 1939
  2481  9.1608e-03  3.9409e-03  2.7567e-03  9.0286e-03  1.3599e-03  1.4988e-03  0:07:13 1938
  2482  8.7739e-03  3.8569e-03  2.7223e-03  8.6448e-03  1.3604e-03  1.4894e-03  0:05:46 1937
  2483  8.4554e-03  3.7819e-03  2.6797e-03  8.3313e-03  1.3611e-03  1.4818e-03  0:04:37 1936
  2484  8.2021e-03  3.7045e-03  2.6334e-03  8.0845e-03  1.3628e-03  1.4741e-03  0:03:41 1935

  iter  continuity  x-velocity  y-velocity      energy           k       omega     time/iter
  2485  8.0006e-03  3.6293e-03  2.5886e-03  7.8895e-03  1.3651e-03  1.4673e-03  0:02:57 1934
  2486  7.8684e-03  3.5567e-03  2.5403e-03  7.7660e-03  1.3686e-03  1.4574e-03  0:02:22 1933
  2487  7.7815e-03  3.4906e-03  2.4834e-03  7.6894e-03  1.3721e-03  1.4458e-03  0:01:53 1932
  2488  7.7453e-03  3.4361e-03  2.4323e-03  7.6647e-03  1.3762e-03  1.4356e-03  0:01:31 1931
  2489  7.7502e-03  3.3853e-03  2.3730e-03  7.6816e-03  1.3805e-03  1.4286e-03  0:01:12 1930
  2490  7.7405e-03  3.3398e-03  2.3090e-03  7.6787e-03  1.3854e-03  1.4213e-03  0:00:58 1929
  2491  7.7527e-03  3.2905e-03  2.2427e-03  7.6978e-03  1.3909e-03  1.4121e-03  0:00:46 1928
  2492  7.7640e-03  3.2427e-03  2.1782e-03  7.7138e-03  1.3963e-03  1.3994e-03  0:07:02 1927
  2493  7.7878e-03  3.1949e-03  2.1142e-03  7.7417e-03  1.4021e-03  1.3868e-03  0:05:38 1926
  2494  7.8032e-03  3.1551e-03  2.0544e-03  7.7588e-03  1.4080e-03  1.3750e-03  0:04:30 1925
  2495  7.8249e-03  3.1205e-03  1.9942e-03  7.7815e-03  1.4142e-03  1.3604e-03  0:03:36 1924

  iter  continuity  x-velocity  y-velocity      energy           k       omega     time/iter
  2496  7.8521e-03  3.0854e-03  1.9358e-03  7.8097e-03  1.4208e-03  1.3449e-03  0:02:53 1923
  2497  7.8743e-03  3.0518e-03  1.8781e-03  7.8325e-03  1.4279e-03  1.3314e-03  0:02:18 1922
  2498  7.8880e-03  3.0233e-03  1.8235e-03  7.8455e-03  1.4351e-03  1.3170e-03  0:01:50 1921
  2499  7.9004e-03  2.9983e-03  1.7860e-03  7.8566e-03  1.4431e-03  1.3018e-03  0:01:28 1920
  2500  7.9131e-03  2.9715e-03  1.7533e-03  7.8682e-03  1.4518e-03  1.2857e-03  0:01:11 1919
  2501  7.9199e-03  2.9492e-03  1.7088e-03  7.8737e-03  1.4610e-03  1.2696e-03  0:07:20 1918
  2502  7.9209e-03  2.9284e-03  1.6617e-03  7.8734e-03  1.4702e-03  1.2547e-03  0:05:52 1917
  2503  7.9190e-03  2.9075e-03  1.6360e-03  7.8703e-03  1.4796e-03  1.2404e-03  0:04:41 1916
  2504  7.9196e-03  2.8904e-03  1.6255e-03  7.8699e-03  1.4901e-03  1.2263e-03  0:03:45 1915
  2505  7.9191e-03  2.8694e-03  1.6056e-03  7.8684e-03  1.5014e-03  1.2115e-03  0:03:00 1914
  2506  7.9232e-03  2.8506e-03  1.5891e-03  7.8719e-03  1.5127e-03  1.1966e-03  0:02:24 1913

  iter  continuity  x-velocity  y-velocity      energy           k       omega     time/iter
  2507  7.9413e-03  2.8364e-03  1.5824e-03  7.8903e-03  1.5244e-03  1.1823e-03  0:01:55 1912
  2508  7.9533e-03  2.8198e-03  1.5856e-03  7.9020e-03  1.5366e-03  1.1683e-03  0:01:32 1911
  2509  7.9579e-03  2.8042e-03  1.5779e-03  7.9061e-03  1.5491e-03  1.1561e-03  0:01:14 1910
  2510  7.9474e-03  2.7882e-03  1.5720e-03  7.8940e-03  1.5623e-03  1.1436e-03  0:00:59 1909
  2511  7.9382e-03  2.7714e-03  1.5734e-03  7.8830e-03  1.5756e-03  1.1324e-03  0:00:47 1908
  2512  7.9287e-03  2.7544e-03  1.5900e-03  7.8716e-03  1.5892e-03  1.1219e-03  0:06:59 1907
  2513  7.9220e-03  2.7368e-03  1.5844e-03  7.8635e-03  1.6028e-03  1.1108e-03  0:05:35 1906
  2514  7.9109e-03  2.7201e-03  1.6020e-03  7.8507e-03  1.6164e-03  1.1005e-03  0:04:28 1905
  2515  7.9017e-03  2.7033e-03  1.5985e-03  7.8395e-03  1.6300e-03  1.0901e-03  0:03:34 1904
  2516  7.8921e-03  2.6829e-03  1.6036e-03  7.8282e-03  1.6439e-03  1.0799e-03  0:02:51 1903
  2517  7.8853e-03  2.6617e-03  1.5978e-03  7.8203e-03  1.6576e-03  1.0709e-03  0:02:17 1902

  iter  continuity  x-velocity  y-velocity      energy           k       omega     time/iter
  2518  7.8707e-03  2.6379e-03  1.5949e-03  7.8041e-03  1.6713e-03  1.0632e-03  0:01:49 1901
  2519  7.8564e-03  2.6131e-03  1.5928e-03  7.7884e-03  1.6845e-03  1.0551e-03  0:07:48 1900
  2520  7.8216e-03  2.5862e-03  1.5884e-03  7.7515e-03  1.6980e-03  1.0470e-03  0:06:14 1899
  2521  7.7884e-03  2.5588e-03  1.5813e-03  7.7164e-03  1.7113e-03  1.0389e-03  0:04:59 1898
  2522  7.7529e-03  2.5323e-03  1.5717e-03  7.6793e-03  1.7243e-03  1.0295e-03  0:03:59 1897
  2523  7.7131e-03  2.5037e-03  1.5550e-03  7.6381e-03  1.7368e-03  1.0190e-03  0:03:11 1896
  2524  7.6653e-03  2.4744e-03  1.5343e-03  7.5890e-03  1.7491e-03  1.0082e-03  0:02:33 1895
  2525  7.6158e-03  2.4463e-03  1.5121e-03  7.5386e-03  1.7605e-03  9.9785e-04  0:02:02 1894
  2526  7.5592e-03  2.4179e-03  1.4838e-03  7.4811e-03  1.7714e-03  9.8814e-04  0:01:38 1893
  2527  7.4953e-03  2.3870e-03  1.4579e-03  7.4165e-03  1.7814e-03  9.7864e-04  0:01:18 1892
  2528  7.4233e-03  2.3555e-03  1.4337e-03  7.3439e-03  1.7906e-03  9.6843e-04  0:01:02 1891

  iter  continuity  x-velocity  y-velocity      energy           k       omega     time/iter
  2529  7.3457e-03  2.3250e-03  1.4073e-03  7.2659e-03  1.7997e-03  9.5855e-04  0:00:50 1890
  2530  7.2619e-03  2.2948e-03  1.3799e-03  7.1820e-03  1.8087e-03  9.4866e-04  0:06:58 1889
  2531  7.1772e-03  2.2655e-03  1.3532e-03  7.0974e-03  1.8167e-03  9.3889e-04  0:05:34 1888
  2532  7.0863e-03  2.2336e-03  1.3235e-03  7.0067e-03  1.8239e-03  9.2900e-04  0:04:27 1887
  2533  6.9872e-03  2.1996e-03  1.2970e-03  6.9080e-03  1.8311e-03  9.1858e-04  0:03:34 1886
  2534  6.8851e-03  2.1664e-03  1.2715e-03  6.8063e-03  1.8380e-03  9.0850e-04  0:02:51 1885
  2535  6.7792e-03  2.1324e-03  1.2500e-03  6.7009e-03  1.8443e-03  8.9901e-04  0:02:17 1884
  2536  6.6700e-03  2.0978e-03  1.2322e-03  6.5919e-03  1.8505e-03  8.9044e-04  0:01:49 1883
  2537  6.5603e-03  2.0654e-03  1.2169e-03  6.4824e-03  1.8560e-03  8.8270e-04  0:01:27 1882
  2538  6.4471e-03  2.0345e-03  1.2053e-03  6.3692e-03  1.8609e-03  8.7496e-04  0:01:10 1881
  2539  6.3376e-03  2.0055e-03  1.1980e-03  6.2595e-03  1.8657e-03  8.6823e-04  0:00:56 1880

  iter  continuity  x-velocity  y-velocity      energy           k       omega     time/iter
  2540  6.2302e-03  1.9770e-03  1.1940e-03  6.1517e-03  1.8703e-03  8.6204e-04  0:07:00 1879
  2541  6.1237e-03  1.9469e-03  1.1947e-03  6.0444e-03  1.8742e-03  8.5582e-04  0:05:36 1878
  2542  6.0225e-03  1.9172e-03  1.1985e-03  5.9421e-03  1.8780e-03  8.4854e-04  0:04:29 1877
  2543  5.9280e-03  1.8896e-03  1.2048e-03  5.8464e-03  1.8822e-03  8.4109e-04  0:03:35 1876
  2544  5.8385e-03  1.8643e-03  1.2138e-03  5.7553e-03  1.8861e-03  8.3453e-04  0:02:52 1875
  2545  5.7572e-03  1.8393e-03  1.2224e-03  5.6721e-03  1.8904e-03  8.2809e-04  0:02:17 1874
  2546  5.6872e-03  1.8180e-03  1.2335e-03  5.6000e-03  1.8946e-03  8.2258e-04  0:01:50 1873
  2547  5.6305e-03  1.7983e-03  1.2451e-03  5.5410e-03  1.8987e-03  8.1683e-04  0:01:28 1872
  2548  5.5861e-03  1.7800e-03  1.2576e-03  5.4944e-03  1.9027e-03  8.1001e-04  0:01:10 1871
  2549  5.5537e-03  1.7603e-03  1.2702e-03  5.4599e-03  1.9067e-03  8.0330e-04  0:00:56 1870
  2550  5.5344e-03  1.7399e-03  1.2829e-03  5.4385e-03  1.9101e-03  7.9634e-04  0:06:59 1869

  iter  continuity  x-velocity  y-velocity      energy           k       omega     time/iter
  2551  5.5296e-03  1.7218e-03  1.2949e-03  5.4320e-03  1.9137e-03  7.8914e-04  0:05:35 1868
  2552  5.5395e-03  1.7017e-03  1.3059e-03  5.4405e-03  1.9167e-03  7.8170e-04  0:04:28 1867
  2553  5.5645e-03  1.6828e-03  1.3159e-03  5.4646e-03  1.9187e-03  7.7375e-04  0:03:34 1866
  2554  5.6047e-03  1.6647e-03  1.3248e-03  5.5042e-03  1.9201e-03  7.6502e-04  0:02:51 1865
  2555  5.6594e-03  1.6463e-03  1.3323e-03  5.5587e-03  1.9204e-03  7.5791e-04  0:02:17 1864
  2556  5.7287e-03  1.6287e-03  1.3378e-03  5.6282e-03  1.9198e-03  7.4980e-04  0:01:49 1863
  2557  5.8118e-03  1.6126e-03  1.3407e-03  5.7121e-03  1.9186e-03  7.4156e-04  0:01:27 1862
  2558  5.9103e-03  1.5980e-03  1.3409e-03  5.8118e-03  1.9160e-03  7.3275e-04  0:01:10 1861
  2559  6.0235e-03  1.5846e-03  1.3397e-03  5.9266e-03  1.9119e-03  7.2297e-04  0:00:56 1860
  2560  6.1507e-03  1.5689e-03  1.3364e-03  6.0558e-03  1.9066e-03  7.1359e-04  0:06:57 1859
  2561  6.2868e-03  1.5515e-03  1.3311e-03  6.1940e-03  1.9000e-03  7.0427e-04  0:05:33 1858

  iter  continuity  x-velocity  y-velocity      energy           k       omega     time/iter
  2562  6.4378e-03  1.5345e-03  1.3235e-03  6.3476e-03  1.8923e-03  6.9508e-04  0:04:26 1857
  2563  6.6055e-03  1.5170e-03  1.3128e-03  6.5180e-03  1.8830e-03  6.8622e-04  0:03:33 1856
  2564  6.7735e-03  1.4990e-03  1.3000e-03  6.6888e-03  1.8720e-03  6.7882e-04  0:02:50 1855
  2565  6.9347e-03  1.4830e-03  1.2857e-03  6.8528e-03  1.8593e-03  6.7150e-04  0:02:16 1854
  2566  7.0990e-03  1.4675e-03  1.2692e-03  7.0198e-03  1.8458e-03  6.6425e-04  0:01:49 1853
  2567  7.2617e-03  1.4528e-03  1.2507e-03  7.1853e-03  1.8313e-03  6.5663e-04  0:01:27 1852
  2568  7.4251e-03  1.4381e-03  1.2305e-03  7.3513e-03  1.8163e-03  6.4901e-04  0:01:10 1851
  2569  7.5866e-03  1.4216e-03  1.2093e-03  7.5153e-03  1.8008e-03  6.4284e-04  0:07:06 1850
  2570  7.7418e-03  1.4043e-03  1.1882e-03  7.6729e-03  1.7850e-03  6.3612e-04  0:05:40 1849
  2571  7.8868e-03  1.3869e-03  1.1660e-03  7.8202e-03  1.7691e-03  6.2946e-04  0:04:32 1848
  2572  8.0186e-03  1.3708e-03  1.1447e-03  7.9540e-03  1.7548e-03  6.2272e-04  0:03:38 1847

  iter  continuity  x-velocity  y-velocity      energy           k       omega     time/iter
  2573  8.1357e-03  1.3548e-03  1.1248e-03  8.0731e-03  1.7421e-03  6.1603e-04  0:02:54 1846
  2574  8.2348e-03  1.3396e-03  1.1060e-03  8.1740e-03  1.7301e-03  6.0964e-04  0:02:19 1845
  2575  8.3134e-03  1.3254e-03  1.0880e-03  8.2541e-03  1.7190e-03  6.0345e-04  0:01:51 1844
  2576  8.3703e-03  1.3100e-03  1.0713e-03  8.3124e-03  1.7091e-03  5.9754e-04  0:01:29 1843
  2577  8.4075e-03  1.2959e-03  1.0566e-03  8.3509e-03  1.6994e-03  5.9247e-04  0:01:11 1842
  2578  8.4226e-03  1.2829e-03  1.0441e-03  8.3671e-03  1.6902e-03  5.8771e-04  0:00:57 1841
  2579  8.4108e-03  1.2707e-03  1.0337e-03  8.3563e-03  1.6815e-03  5.8300e-04  0:06:53 1840
  2580  8.3698e-03  1.2593e-03  1.0252e-03  8.3162e-03  1.6736e-03  5.7808e-04  0:05:31 1839
  2581  8.2986e-03  1.2477e-03  1.0185e-03  8.2459e-03  1.6672e-03  5.7348e-04  0:04:24 1838
  2582  8.1998e-03  1.2357e-03  1.0133e-03  8.1479e-03  1.6622e-03  5.6957e-04  0:03:31 1837
  2583  8.0740e-03  1.2242e-03  1.0100e-03  8.0229e-03  1.6571e-03  5.6561e-04  0:02:49 1836

  iter  continuity  x-velocity  y-velocity      energy           k       omega     time/iter
  2584  7.9203e-03  1.2131e-03  1.0078e-03  7.8700e-03  1.6524e-03  5.6091e-04  0:02:15 1835
  2585  7.7405e-03  1.2019e-03  1.0065e-03  7.6910e-03  1.6480e-03  5.5684e-04  0:01:48 1834
  2586  7.5348e-03  1.1903e-03  1.0057e-03  7.4862e-03  1.6439e-03  5.5233e-04  0:01:26 1833
  2587  7.3063e-03  1.1798e-03  1.0053e-03  7.2585e-03  1.6414e-03  5.4669e-04  0:07:15 1832
  2588  7.0549e-03  1.1702e-03  1.0052e-03  7.0080e-03  1.6404e-03  5.4190e-04  0:05:48 1831
  2589  6.7824e-03  1.1622e-03  1.0050e-03  6.7363e-03  1.6394e-03  5.3698e-04  0:04:38 1830
  2590  6.4907e-03  1.1557e-03  1.0046e-03  6.4454e-03  1.6381e-03  5.3309e-04  0:03:43 1829
  2591  6.1813e-03  1.1489e-03  1.0039e-03  6.1369e-03  1.6374e-03  5.2892e-04  0:02:58 1828
  2592  5.8565e-03  1.1424e-03  1.0027e-03  5.8129e-03  1.6374e-03  5.2473e-04  0:02:22 1827
  2593  5.5206e-03  1.1368e-03  1.0009e-03  5.4777e-03  1.6378e-03  5.2061e-04  0:01:54 1826
  2594  5.1787e-03  1.1323e-03  9.9809e-04  5.1364e-03  1.6389e-03  5.1687e-04  0:01:31 1825

  iter  continuity  x-velocity  y-velocity      energy           k       omega     time/iter
  2595  4.8355e-03  1.1286e-03  9.9422e-04  4.7936e-03  1.6406e-03  5.1330e-04  0:01:13 1824
  2596  4.4970e-03  1.1255e-03  9.8932e-04  4.4553e-03  1.6423e-03  5.0981e-04  0:00:58 1823
  2597  4.1707e-03  1.1229e-03  9.8343e-04  4.1289e-03  1.6442e-03  5.0661e-04  0:06:51 1822
  2598  3.8634e-03  1.1216e-03  9.7662e-04  3.8213e-03  1.6462e-03  5.0344e-04  0:05:29 1821
  2599  3.5852e-03  1.1206e-03  9.6877e-04  3.5424e-03  1.6482e-03  5.0014e-04  0:04:23 1820
  2600  3.3453e-03  1.1196e-03  9.5976e-04  3.3016e-03  1.6497e-03  4.9667e-04  0:03:30 1819
  2601  3.1545e-03  1.1186e-03  9.4943e-04  3.1099e-03  1.6510e-03  4.9318e-04  0:02:48 1818
  2602  3.0259e-03  1.1171e-03  9.3816e-04  2.9802e-03  1.6524e-03  4.8942e-04  0:02:14 1817
  2603  2.9646e-03  1.1151e-03  9.2580e-04  2.9181e-03  1.6538e-03  4.8617e-04  0:01:47 1816
  2604  2.9717e-03  1.1124e-03  9.1251e-04  2.9247e-03  1.6549e-03  4.8237e-04  0:01:26 1815
  2605  3.0424e-03  1.1102e-03  8.9812e-04  2.9953e-03  1.6564e-03  4.7884e-04  0:01:09 1814

  iter  continuity  x-velocity  y-velocity      energy           k       omega     time/iter
  2606  3.1665e-03  1.1074e-03  8.8258e-04  3.1196e-03  1.6572e-03  4.7570e-04  0:00:55 1813
  2607  3.3319e-03  1.1047e-03  8.6662e-04  3.2854e-03  1.6578e-03  4.7236e-04  0:06:46 1812
  2608  3.5213e-03  1.1030e-03  8.5081e-04  3.4751e-03  1.6579e-03  4.6877e-04  0:05:25 1811
  2609  3.7250e-03  1.1038e-03  8.3463e-04  3.6792e-03  1.6576e-03  4.6534e-04  0:04:20 1810
  2610  3.9328e-03  1.1032e-03  8.1704e-04  3.8873e-03  1.6570e-03  4.6209e-04  0:03:28 1809
  2611  4.1351e-03  1.0988e-03  7.9818e-04  4.0899e-03  1.6558e-03  4.5900e-04  0:02:46 1808
  2612  4.3248e-03  1.0947e-03  7.7814e-04  4.2798e-03  1.6544e-03  4.5617e-04  0:02:13 1807
  2613  4.4956e-03  1.0883e-03  7.5820e-04  4.4509e-03  1.6519e-03  4.5347e-04  0:01:46 1806
  2614  4.6437e-03  1.0786e-03  7.3856e-04  4.5994e-03  1.6489e-03  4.5051e-04  0:01:25 1805
  2615  4.7668e-03  1.0704e-03  7.1967e-04  4.7229e-03  1.6450e-03  4.4783e-04  0:01:08 1804
  2616  4.8615e-03  1.0625e-03  7.0236e-04  4.8180e-03  1.6405e-03  4.4521e-04  0:06:55 1803

  iter  continuity  x-velocity  y-velocity      energy           k       omega     time/iter
  2617  4.9253e-03  1.0549e-03  6.8568e-04  4.8822e-03  1.6350e-03  4.4240e-04  0:05:32 1802
  2618  4.9627e-03  1.0474e-03  6.7003e-04  4.9200e-03  1.6283e-03  4.3957e-04  0:04:25 1801
  2619  4.9735e-03  1.0387e-03  6.5553e-04  4.9313e-03  1.6207e-03  4.3675e-04  0:03:32 1800
  2620  4.9566e-03  1.0310e-03  6.4326e-04  4.9148e-03  1.6122e-03  4.3426e-04  0:02:50 1799
  2621  4.9111e-03  1.0211e-03  6.3251e-04  4.8698e-03  1.6029e-03  4.3192e-04  0:02:16 1798
  2622  4.8300e-03  1.0146e-03  6.2370e-04  4.7891e-03  1.5925e-03  4.2920e-04  0:01:48 1797
  2623  4.7166e-03  1.0096e-03  6.1721e-04  4.6761e-03  1.5818e-03  4.2681e-04  0:01:27 1796
  2624  4.5883e-03  1.0038e-03  6.1195e-04  4.5481e-03  1.5705e-03  4.2427e-04  0:01:09 1795
  2625  4.4484e-03  9.9865e-04  6.0774e-04  4.4085e-03  1.5589e-03  4.2195e-04  0:00:55 1794
  2626  4.2994e-03  9.9380e-04  6.0410e-04  4.2597e-03  1.5478e-03  4.1900e-04  0:06:43 1793
  2627  4.1462e-03  9.9003e-04  6.0114e-04  4.1066e-03  1.5364e-03  4.1605e-04  0:05:22 1792

  iter  continuity  x-velocity  y-velocity      energy           k       omega     time/iter
  2628  3.9953e-03  9.8480e-04  5.9807e-04  3.9558e-03  1.5250e-03  4.1377e-04  0:04:18 1791
  2629  3.8524e-03  9.7634e-04  5.9436e-04  3.8130e-03  1.5141e-03  4.1153e-04  0:03:26 1790
  2630  3.7240e-03  9.7084e-04  5.9020e-04  3.6847e-03  1.5029e-03  4.0894e-04  0:02:45 1789
  2631  3.6126e-03  9.6410e-04  5.8557e-04  3.5735e-03  1.4918e-03  4.0644e-04  0:02:12 1788
  2632  3.5203e-03  9.6075e-04  5.8067e-04  3.4814e-03  1.4802e-03  4.0296e-04  0:01:45 1787
  2633  3.4544e-03  9.5765e-04  5.7500e-04  3.4159e-03  1.4684e-03  4.0032e-04  0:01:24 1786
  2634  3.4186e-03  9.5136e-04  5.6883e-04  3.3806e-03  1.4562e-03  3.9789e-04  0:01:07 1785
  2635  3.4115e-03  9.4303e-04  5.6180e-04  3.3743e-03  1.4439e-03  3.9510e-04  0:00:54 1784
  2636  3.4282e-03  9.3432e-04  5.5405e-04  3.3918e-03  1.4314e-03  3.9165e-04  0:06:40 1783
  2637  3.4628e-03  9.2832e-04  5.4579e-04  3.4271e-03  1.4189e-03  3.8856e-04  0:05:20 1782
  2638  3.5067e-03  9.2146e-04  5.3718e-04  3.4718e-03  1.4067e-03  3.8601e-04  0:04:15 1781

  iter  continuity  x-velocity  y-velocity      energy           k       omega     time/iter
  2639  3.5649e-03  9.1332e-04  5.2893e-04  3.5306e-03  1.3943e-03  3.8347e-04  0:03:24 1780
  2640  3.6310e-03  9.0120e-04  5.2015e-04  3.5973e-03  1.3820e-03  3.8033e-04  0:02:43 1779
  2641  3.6977e-03  8.9158e-04  5.1077e-04  3.6645e-03  1.3698e-03  3.7764e-04  0:02:11 1778
  2642  3.7589e-03  8.8362e-04  5.0150e-04  3.7260e-03  1.3580e-03  3.7535e-04  0:01:44 1777
  2643  3.8102e-03  8.7760e-04  4.9275e-04  3.7777e-03  1.3464e-03  3.7328e-04  0:01:23 1776
  2644  3.8488e-03  8.7249e-04  4.8450e-04  3.8164e-03  1.3350e-03  3.7130e-04  0:01:07 1775
  2645  3.8718e-03  8.6620e-04  4.7675e-04  3.8395e-03  1.3238e-03  3.6958e-04  0:06:48 1774
  2646  3.8779e-03  8.6016e-04  4.6958e-04  3.8456e-03  1.3133e-03  3.6801e-04  0:05:26 1773
  2647  3.8657e-03  8.5462e-04  4.6318e-04  3.8334e-03  1.3030e-03  3.6657e-04  0:04:21 1772
  2648  3.8344e-03  8.4903e-04  4.5757e-04  3.8021e-03  1.2933e-03  3.6526e-04  0:03:29 1771
  2649  3.7846e-03  8.4531e-04  4.5242e-04  3.7522e-03  1.2837e-03  3.6452e-04  0:02:47 1770

  iter  continuity  x-velocity  y-velocity      energy           k       omega     time/iter
  2650  3.7153e-03  8.3700e-04  4.4740e-04  3.6829e-03  1.2747e-03  3.6402e-04  0:02:13 1769
  2651  3.6277e-03  8.2969e-04  4.4205e-04  3.5953e-03  1.2660e-03  3.6345e-04  0:01:47 1768
  2652  3.5233e-03  8.2535e-04  4.3712e-04  3.4908e-03  1.2572e-03  3.6262e-04  0:01:25 1767
  2653  3.4030e-03  8.1670e-04  4.3270e-04  3.3705e-03  1.2485e-03  3.6177e-04  0:07:01 1766
  2654  3.2698e-03  8.0916e-04  4.2906e-04  3.2374e-03  1.2394e-03  3.6102e-04  0:05:37 1765
  2655  3.1273e-03  8.0576e-04  4.2550e-04  3.0948e-03  1.2303e-03  3.6033e-04  0:04:29 1764
  2656  2.9788e-03  8.0315e-04  4.2213e-04  2.9463e-03  1.2209e-03  3.5969e-04  0:03:35 1763
  2657  2.8276e-03  7.9734e-04  4.1859e-04  2.7951e-03  1.2113e-03  3.5907e-04  0:02:52 1762
  2658  2.6785e-03  7.8966e-04  4.1501e-04  2.6458e-03  1.2016e-03  3.5797e-04  0:02:18 1761
  2659  2.5358e-03  7.8077e-04  4.1189e-04  2.5030e-03  1.1919e-03  3.5716e-04  0:01:50 1760
  2660  2.4057e-03  7.7413e-04  4.0939e-04  2.3726e-03  1.1822e-03  3.5639e-04  0:01:28 1759

  iter  continuity  x-velocity  y-velocity      energy           k       omega     time/iter
  2661  2.2926e-03  7.7103e-04  4.0708e-04  2.2592e-03  1.1720e-03  3.5539e-04  0:01:10 1758
  2662  2.2018e-03  7.6242e-04  4.0434e-04  2.1681e-03  1.1621e-03  3.5422e-04  0:00:56 1757
  2663  2.1373e-03  7.5218e-04  4.0090e-04  2.1034e-03  1.1523e-03  3.5270e-04  0:06:36 1756
  2664  2.1011e-03  7.4227e-04  3.9751e-04  2.0670e-03  1.1430e-03  3.5181e-04  0:05:17 1755
  2665  2.0946e-03  7.3429e-04  3.9411e-04  2.0605e-03  1.1342e-03  3.5055e-04  0:04:13 1754
  2666  2.1160e-03  7.3048e-04  3.9051e-04  2.0820e-03  1.1264e-03  3.4847e-04  0:03:23 1753
  2667  2.1609e-03  7.2654e-04  3.8686e-04  2.1270e-03  1.1194e-03  3.4743e-04  0:02:42 1752
  2668  2.2246e-03  7.2212e-04  3.8362e-04  2.1909e-03  1.1136e-03  3.4640e-04  0:02:09 1751
  2669  2.3027e-03  7.1722e-04  3.8011e-04  2.2692e-03  1.1078e-03  3.4442e-04  0:01:44 1750
  2670  2.3910e-03  7.1252e-04  3.7612e-04  2.3576e-03  1.1023e-03  3.4276e-04  0:01:23 1749
  2671  2.4834e-03  7.0903e-04  3.7228e-04  2.4501e-03  1.0965e-03  3.4092e-04  0:01:06 1748

  iter  continuity  x-velocity  y-velocity      energy           k       omega     time/iter
  2672  2.5760e-03  7.0308e-04  3.6873e-04  2.5427e-03  1.0907e-03  3.3903e-04  0:06:42 1747
  2673  2.6660e-03  6.9488e-04  3.6554e-04  2.6327e-03  1.0851e-03  3.3726e-04  0:05:22 1746
  2674  2.7500e-03  6.8518e-04  3.6237e-04  2.7165e-03  1.0800e-03  3.3534e-04  0:04:17 1745
  2675  2.8269e-03  6.7763e-04  3.5945e-04  2.7933e-03  1.0746e-03  3.3341e-04  0:03:26 1744
  2676  2.8958e-03  6.7183e-04  3.5670e-04  2.8620e-03  1.0694e-03  3.3138e-04  0:02:44 1743
  2677  2.9552e-03  6.6814e-04  3.5395e-04  2.9213e-03  1.0644e-03  3.2957e-04  0:02:11 1742
  2678  3.0052e-03  6.6693e-04  3.5103e-04  2.9712e-03  1.0598e-03  3.2773e-04  0:01:45 1741
  2679  3.0456e-03  6.6585e-04  3.4819e-04  3.0116e-03  1.0556e-03  3.2596e-04  0:01:24 1740
  2680  3.0765e-03  6.6359e-04  3.4542e-04  3.0423e-03  1.0522e-03  3.2421e-04  0:01:07 1739
  2681  3.0979e-03  6.6109e-04  3.4281e-04  3.0636e-03  1.0492e-03  3.2241e-04  0:00:54 1738
  2682  3.1104e-03  6.5782e-04  3.4046e-04  3.0759e-03  1.0465e-03  3.2067e-04  0:06:30 1737

  iter  continuity  x-velocity  y-velocity      energy           k       omega     time/iter
  2683  3.1147e-03  6.5422e-04  3.3843e-04  3.0800e-03  1.0444e-03  3.1869e-04  0:05:12 1736
  2684  3.1119e-03  6.5330e-04  3.3660e-04  3.0770e-03  1.0427e-03  3.1712e-04  0:04:10 1735
  2685  3.1025e-03  6.5304e-04  3.3477e-04  3.0675e-03  1.0412e-03  3.1562e-04  0:03:20 1734
  2686  3.0879e-03  6.5307e-04  3.3289e-04  3.0527e-03  1.0398e-03  3.1382e-04  0:02:40 1733
  2687  3.0686e-03  6.5305e-04  3.3100e-04  3.0333e-03  1.0382e-03  3.1209e-04  0:02:08 1732
  2688  3.0456e-03  6.5226e-04  3.2889e-04  3.0102e-03  1.0367e-03  3.1036e-04  0:01:42 1731
  2689  3.0197e-03  6.5065e-04  3.2674e-04  2.9842e-03  1.0352e-03  3.0868e-04  0:07:08 1730
  2690  2.9921e-03  6.4859e-04  3.2486e-04  2.9564e-03  1.0337e-03  3.0699e-04  0:05:42 1729
  2691  2.9632e-03  6.4770e-04  3.2328e-04  2.9274e-03  1.0321e-03  3.0519e-04  0:04:33 1728
  2692  2.9338e-03  6.4739e-04  3.2213e-04  2.8979e-03  1.0301e-03  3.0315e-04  0:03:39 1727
  2693  2.9047e-03  6.4686e-04  3.2142e-04  2.8687e-03  1.0280e-03  3.0105e-04  0:02:55 1726

  iter  continuity  x-velocity  y-velocity      energy           k       omega     time/iter
  2694  2.8766e-03  6.4458e-04  3.2104e-04  2.8405e-03  1.0256e-03  2.9938e-04  0:02:20 1725
  2695  2.8502e-03  6.4125e-04  3.2090e-04  2.8140e-03  1.0227e-03  2.9735e-04  0:01:52 1724
  2696  2.8262e-03  6.3751e-04  3.2127e-04  2.7899e-03  1.0199e-03  2.9549e-04  0:01:29 1723
  2697  2.8054e-03  6.3479e-04  3.2215e-04  2.7691e-03  1.0170e-03  2.9362e-04  0:01:11 1722
  2698  2.7882e-03  6.3307e-04  3.2353e-04  2.7518e-03  1.0144e-03  2.9176e-04  0:00:57 1721
  2699  2.7762e-03  6.3282e-04  3.2542e-04  2.7397e-03  1.0116e-03  2.9036e-04  0:06:30 1720
  2700  2.7697e-03  6.3174e-04  3.2759e-04  2.7332e-03  1.0092e-03  2.8911e-04  0:05:12 1719
  2701  2.7697e-03  6.3297e-04  3.2993e-04  2.7331e-03  1.0071e-03  2.8783e-04  0:04:09 1718
  2702  2.7769e-03  6.3819e-04  3.3229e-04  2.7403e-03  1.0052e-03  2.8651e-04  0:03:19 1717
  2703  2.7918e-03  6.4907e-04  3.3489e-04  2.7551e-03  1.0035e-03  2.8515e-04  0:02:39 1716
  2704  2.8143e-03  6.6311e-04  3.3771e-04  2.7776e-03  1.0019e-03  2.8409e-04  0:02:07 1715

  iter  continuity  x-velocity  y-velocity      energy           k       omega     time/iter
  2705  2.8435e-03  6.6433e-04  3.4022e-04  2.8068e-03  1.0007e-03  2.8320e-04  0:01:42 1714
  2706  2.8799e-03  6.6574e-04  3.4244e-04  2.8432e-03  9.9970e-04  2.8219e-04  0:01:21 1713
  2707  2.9228e-03  6.6580e-04  3.4462e-04  2.8862e-03  9.9881e-04  2.8116e-04  0:01:05 1712
  2708  2.9716e-03  6.6497e-04  3.4650e-04  2.9352e-03  9.9833e-04  2.8027e-04  0:00:52 1711
  2709  3.0251e-03  6.6120e-04  3.4799e-04  2.9888e-03  9.9786e-04  2.7927e-04  0:06:24 1710
  2710  3.0821e-03  6.5580e-04  3.4920e-04  3.0460e-03  9.9738e-04  2.7830e-04  0:05:07 1709
  2711  3.1416e-03  6.5127e-04  3.5008e-04  3.1055e-03  9.9699e-04  2.7732e-04  0:04:05 1708
  2712  3.2020e-03  6.5081e-04  3.5087e-04  3.1660e-03  9.9709e-04  2.7635e-04  0:03:16 1707
  2713  3.2616e-03  6.5124e-04  3.5164e-04  3.2256e-03  9.9740e-04  2.7526e-04  0:02:37 1706
  2714  3.3187e-03  6.5423e-04  3.5255e-04  3.2827e-03  9.9781e-04  2.7412e-04  0:02:05 1705
  2715  3.3716e-03  6.5756e-04  3.5311e-04  3.3357e-03  9.9822e-04  2.7303e-04  0:01:40 1704

  iter  continuity  x-velocity  y-velocity      energy           k       omega     time/iter
  2716  3.4192e-03  6.6366e-04  3.5294e-04  3.3834e-03  9.9868e-04  2.7184e-04  0:01:20 1703
  2717  3.4602e-03  6.7354e-04  3.5233e-04  3.4245e-03  9.9909e-04  2.7068e-04  0:01:04 1702
  2718  3.4938e-03  6.8856e-04  3.5153e-04  3.4581e-03  9.9945e-04  2.6941e-04  0:00:51 1701
  2719  3.5184e-03  6.9590e-04  3.5075e-04  3.4828e-03  9.9947e-04  2.6809e-04  0:00:41 1700
  2720  3.5338e-03  7.0546e-04  3.5008e-04  3.4981e-03  9.9931e-04  2.6704e-04  0:06:13 1699
  2721  3.5393e-03  7.1947e-04  3.4955e-04  3.5036e-03  9.9876e-04  2.6593e-04  0:04:58 1698
  2722  3.5348e-03  7.3240e-04  3.4900e-04  3.4991e-03  9.9802e-04  2.6477e-04  0:03:58 1697
  2723  3.5199e-03  7.4482e-04  3.4844e-04  3.4842e-03  9.9700e-04  2.6355e-04  0:03:10 1696
  2724  3.4953e-03  7.5554e-04  3.4795e-04  3.4595e-03  9.9564e-04  2.6215e-04  0:02:32 1695
  2725  3.4614e-03  7.6098e-04  3.4798e-04  3.4254e-03  9.9417e-04  2.6068e-04  0:02:02 1694
  2726  3.4183e-03  7.5327e-04  3.4825e-04  3.3822e-03  9.9238e-04  2.5974e-04  0:01:37 1693

  iter  continuity  x-velocity  y-velocity      energy           k       omega     time/iter
  2727  3.3683e-03  7.5786e-04  3.4875e-04  3.3320e-03  9.9043e-04  2.5931e-04  0:01:18 1692
  2728  3.3121e-03  7.6913e-04  3.4948e-04  3.2755e-03  9.8824e-04  2.5899e-04  0:01:02 1691
  2729  3.2508e-03  7.8331e-04  3.5060e-04  3.2138e-03  9.8584e-04  2.5860e-04  0:00:50 1690
  2730  3.1849e-03  7.9314e-04  3.5179e-04  3.1476e-03  9.8318e-04  2.5816e-04  0:06:18 1689
  2731  3.1162e-03  8.0448e-04  3.5280e-04  3.0784e-03  9.8021e-04  2.5788e-04  0:05:02 1688
  2732  3.0457e-03  8.1453e-04  3.5345e-04  3.0074e-03  9.7700e-04  2.5791e-04  0:04:01 1687
  2733  2.9745e-03  8.1727e-04  3.5374e-04  2.9357e-03  9.7345e-04  2.5796e-04  0:03:13 1686
  2734  2.9048e-03  8.2552e-04  3.5329e-04  2.8654e-03  9.6920e-04  2.5803e-04  0:02:34 1685
  2735  2.8367e-03  8.2844e-04  3.5295e-04  2.7967e-03  9.6461e-04  2.5837e-04  0:02:03 1684
  2736  2.7719e-03  8.3278e-04  3.5287e-04  2.7313e-03  9.5964e-04  2.5911e-04  0:01:39 1683
  2737  2.7117e-03  8.4261e-04  3.5246e-04  2.6704e-03  9.5414e-04  2.6029e-04  0:01:19 1682

  iter  continuity  x-velocity  y-velocity      energy           k       omega     time/iter
  2738  2.6559e-03  8.4922e-04  3.5192e-04  2.6138e-03  9.4798e-04  2.6168e-04  0:01:03 1681
  2739  2.6060e-03  8.5908e-04  3.5128e-04  2.5631e-03  9.4110e-04  2.6316e-04  0:00:50 1680
  2740  2.5621e-03  8.7400e-04  3.5071e-04  2.5185e-03  9.3354e-04  2.6486e-04  0:00:40 1679
  2741  2.5240e-03  8.8439e-04  3.4962e-04  2.4796e-03  9.2540e-04  2.6663e-04  0:06:08 1678
  2742  2.4917e-03  8.9140e-04  3.4820e-04  2.4465e-03  9.1662e-04  2.6830e-04  0:04:54 1677
  2743  2.4657e-03  9.0712e-04  3.4667e-04  2.4199e-03  9.0728e-04  2.7031e-04  0:03:55 1676
  2744  2.4454e-03  9.2410e-04  3.4528e-04  2.3988e-03  8.9743e-04  2.7250e-04  0:03:08 1675
  2745  2.4301e-03  9.3710e-04  3.4457e-04  2.3829e-03  8.8700e-04  2.7456e-04  0:02:30 1674
  2746  2.4167e-03  9.3595e-04  3.4407e-04  2.3689e-03  8.7620e-04  2.7689e-04  0:02:00 1673
  2747  2.4067e-03  9.3669e-04  3.4388e-04  2.3584e-03  8.6500e-04  2.7932e-04  0:01:36 1672
  2748  2.4008e-03  9.4171e-04  3.4356e-04  2.3519e-03  8.5335e-04  2.8221e-04  0:01:17 1671

  iter  continuity  x-velocity  y-velocity      energy           k       omega     time/iter
  2749  2.3963e-03  9.4388e-04  3.4282e-04  2.3468e-03  8.4143e-04  2.8522e-04  0:01:01 1670
  2750  2.3945e-03  9.4700e-04  3.4132e-04  2.3445e-03  8.2943e-04  2.8829e-04  0:00:49 1669
  2751  2.3945e-03  9.5531e-04  3.4050e-04  2.3437e-03  8.1726e-04  2.9092e-04  0:06:13 1668
  2752  2.3966e-03  9.7061e-04  3.4082e-04  2.3447e-03  8.0490e-04  2.9360e-04  0:04:58 1667
  2753  2.4016e-03  1.0043e-03  3.4190e-04  2.3487e-03  7.9267e-04  2.9615e-04  0:03:58 1666
  2754  2.4053e-03  1.0174e-03  3.4292e-04  2.3512e-03  7.8096e-04  2.9893e-04  0:03:11 1665
  2755  2.4062e-03  9.9358e-04  3.4512e-04  2.3510e-03  7.6935e-04  3.0171e-04  0:02:32 1664
  2756  2.4107e-03  9.8928e-04  3.4779e-04  2.3540e-03  7.5800e-04  3.0447e-04  0:02:02 1663
  2757  2.4189e-03  1.0074e-03  3.5072e-04  2.3606e-03  7.4710e-04  3.0722e-04  0:01:37 1662
  2758  2.4278e-03  1.0314e-03  3.5231e-04  2.3678e-03  7.3657e-04  3.0974e-04  0:01:18 1661
  2759  2.4355e-03  1.0351e-03  3.5467e-04  2.3740e-03  7.2650e-04  3.1220e-04  0:01:02 1660

  iter  continuity  x-velocity  y-velocity      energy           k       omega     time/iter
  2760  2.4375e-03  9.9201e-04  3.5419e-04  2.3751e-03  7.1692e-04  3.1452e-04  0:00:50 1659
  2761  2.4455e-03  9.7091e-04  3.5303e-04  2.3824e-03  7.0796e-04  3.1656e-04  0:06:11 1658
  2762  2.4561e-03  9.6921e-04  3.5229e-04  2.3920e-03  6.9959e-04  3.1844e-04  0:04:57 1657
  2763  2.4696e-03  9.6987e-04  3.5251e-04  2.4045e-03  6.9169e-04  3.2066e-04  0:03:57 1656
  2764  2.4868e-03  9.7449e-04  3.5353e-04  2.4203e-03  6.8437e-04  3.2269e-04  0:03:10 1655
  2765  2.5072e-03  9.8224e-04  3.5511e-04  2.4391e-03  6.7766e-04  3.2456e-04  0:02:32 1654
  2766  2.5298e-03  9.8426e-04  3.5559e-04  2.4601e-03  6.7158e-04  3.2608e-04  0:02:01 1653
  2767  2.5547e-03  9.8496e-04  3.5575e-04  2.4834e-03  6.6662e-04  3.2738e-04  0:01:37 1652
  2768  2.5822e-03  9.8561e-04  3.5666e-04  2.5093e-03  6.6301e-04  3.2860e-04  0:01:18 1651
  2769  2.6129e-03  9.9343e-04  3.5772e-04  2.5384e-03  6.5997e-04  3.2984e-04  0:01:02 1650
  2770  2.6432e-03  9.8598e-04  3.5876e-04  2.5674e-03  6.5737e-04  3.3082e-04  0:00:50 1649

  iter  continuity  x-velocity  y-velocity      energy           k       omega     time/iter
  2771  2.6760e-03  9.8199e-04  3.5897e-04  2.5989e-03  6.5505e-04  3.3159e-04  0:06:09 1648
  2772  2.7112e-03  9.8221e-04  3.5964e-04  2.6326e-03  6.5305e-04  3.3206e-04  0:04:55 1647
  2773  2.7481e-03  9.8589e-04  3.5731e-04  2.6680e-03  6.5137e-04  3.3209e-04  0:03:56 1646
  2774  2.7866e-03  9.9192e-04  3.5631e-04  2.7049e-03  6.4998e-04  3.3226e-04  0:03:09 1645
  2775  2.8263e-03  1.0064e-03  3.5576e-04  2.7430e-03  6.4878e-04  3.3236e-04  0:02:31 1644
  2776  2.8639e-03  1.0097e-03  3.5468e-04  2.7793e-03  6.4787e-04  3.3218e-04  0:02:01 1643
  2777  2.9020e-03  1.0140e-03  3.5542e-04  2.8162e-03  6.4722e-04  3.3144e-04  0:01:36 1642
  2778  2.9392e-03  1.0204e-03  3.5632e-04  2.8522e-03  6.4687e-04  3.3039e-04  0:01:17 1641
  2779  2.9755e-03  1.0178e-03  3.5427e-04  2.8875e-03  6.4670e-04  3.2951e-04  0:06:30 1640
  2780  3.0121e-03  1.0216e-03  3.5324e-04  2.9231e-03  6.4674e-04  3.2879e-04  0:05:12 1639
  2781  3.0472e-03  1.0141e-03  3.5235e-04  2.9571e-03  6.4698e-04  3.2797e-04  0:04:09 1638

  iter  continuity  x-velocity  y-velocity      energy           k       omega     time/iter
  2782  3.0840e-03  1.0339e-03  3.5238e-04  2.9927e-03  6.4736e-04  3.2705e-04  0:03:19 1637
  2783  3.1199e-03  1.0533e-03  3.5456e-04  3.0276e-03  6.4793e-04  3.2593e-04  0:02:39 1636
  2784  3.1538e-03  1.0562e-03  3.5622e-04  3.0603e-03  6.4859e-04  3.2455e-04  0:02:07 1635
  2785  3.1893e-03  1.0775e-03  3.5675e-04  3.0946e-03  6.4926e-04  3.2315e-04  0:01:42 1634
  2786  3.2200e-03  1.0806e-03  3.5445e-04  3.1243e-03  6.5001e-04  3.2162e-04  0:01:21 1633
  2787  3.2525e-03  1.0793e-03  3.5339e-04  3.1555e-03  6.5080e-04  3.1982e-04  0:06:31 1632
  2788  3.2844e-03  1.1098e-03  3.5523e-04  3.1858e-03  6.5177e-04  3.1778e-04  0:05:13 1631
  2789  3.3094e-03  1.0881e-03  3.5490e-04  3.2098e-03  6.5304e-04  3.1591e-04  0:04:10 1630
  2790  3.3292e-03  1.0239e-03  3.5164e-04  3.2295e-03  6.5448e-04  3.1419e-04  0:03:20 1629
  2791  3.3513e-03  9.9598e-04  3.4854e-04  3.2514e-03  6.5585e-04  3.1232e-04  0:02:40 1628
  2792  3.3739e-03  9.8294e-04  3.4752e-04  3.2736e-03  6.5719e-04  3.1030e-04  0:02:08 1627

  iter  continuity  x-velocity  y-velocity      energy           k       omega     time/iter
  2793  3.3966e-03  9.8020e-04  3.4877e-04  3.2957e-03  6.5844e-04  3.0827e-04  0:01:42 1626
  2794  3.4179e-03  9.6999e-04  3.5137e-04  3.3164e-03  6.5969e-04  3.0624e-04  0:01:22 1625
  2795  3.4376e-03  9.5516e-04  3.5243e-04  3.3354e-03  6.6087e-04  3.0416e-04  0:01:05 1624
  2796  3.4570e-03  9.4175e-04  3.5094e-04  3.3541e-03  6.6220e-04  3.0212e-04  0:00:52 1623
  2797  3.4758e-03  9.3484e-04  3.5094e-04  3.3723e-03  6.6343e-04  3.0003e-04  0:06:06 1622
  2798  3.4943e-03  9.3358e-04  3.5189e-04  3.3904e-03  6.6446e-04  2.9801e-04  0:04:53 1621
  2799  3.5123e-03  9.3317e-04  3.5342e-04  3.4079e-03  6.6523e-04  2.9623e-04  0:03:54 1620
  2800  3.5285e-03  9.3369e-04  3.5685e-04  3.4241e-03  6.6574e-04  2.9446e-04  0:03:07 1619
  2801  3.5445e-03  9.3486e-04  3.5839e-04  3.4399e-03  6.6604e-04  2.9253e-04  0:02:30 1618
  2802  3.5599e-03  9.3740e-04  3.5774e-04  3.4551e-03  6.6607e-04  2.9067e-04  0:02:00 1617
  2803  3.5749e-03  9.4005e-04  3.5703e-04  3.4699e-03  6.6595e-04  2.8890e-04  0:01:36 1616

  iter  continuity  x-velocity  y-velocity      energy           k       omega     time/iter
  2804  3.5893e-03  9.5745e-04  3.5770e-04  3.4842e-03  6.6567e-04  2.8717e-04  0:01:16 1615
  2805  3.6006e-03  9.5728e-04  3.5845e-04  3.4957e-03  6.6505e-04  2.8548e-04  0:01:01 1614
  2806  3.6100e-03  9.4202e-04  3.6019e-04  3.5053e-03  6.6416e-04  2.8375e-04  0:00:49 1613
  2807  3.6193e-03  9.3721e-04  3.6201e-04  3.5149e-03  6.6300e-04  2.8229e-04  0:00:39 1612
  2808  3.6284e-03  9.4836e-04  3.6362e-04  3.5243e-03  6.6162e-04  2.8089e-04  0:05:53 1611
  2809  3.6345e-03  9.4986e-04  3.6515e-04  3.5308e-03  6.6007e-04  2.7944e-04  0:04:43 1610
  2810  3.6400e-03  9.4225e-04  3.6727e-04  3.5367e-03  6.5832e-04  2.7804e-04  0:03:46 1609
  2811  3.6464e-03  9.6477e-04  3.7055e-04  3.5438e-03  6.5636e-04  2.7658e-04  0:03:01 1608
  2812  3.6529e-03  9.8248e-04  3.7541e-04  3.5502e-03  6.5426e-04  2.7499e-04  0:02:24 1607
  2813  3.6568e-03  9.9515e-04  3.7762e-04  3.5543e-03  6.5200e-04  2.7337e-04  0:01:55 1606
  2814  3.6589e-03  9.8243e-04  3.7641e-04  3.5568e-03  6.4955e-04  2.7167e-04  0:01:32 1605

  iter  continuity  x-velocity  y-velocity      energy           k       omega     time/iter
  2815  3.6636e-03  1.0089e-03  3.8031e-04  3.5612e-03  6.4698e-04  2.7000e-04  0:01:14 1604
  2816  3.6648e-03  1.0242e-03  3.8380e-04  3.5623e-03  6.4428e-04  2.6869e-04  0:00:59 1603
  2817  3.6569e-03  9.7539e-04  3.8273e-04  3.5552e-03  6.4138e-04  2.6734e-04  0:00:47 1602
  2818  3.6488e-03  9.1477e-04  3.8026e-04  3.5481e-03  6.3828e-04  2.6601e-04  0:05:58 1601
  2819  3.6416e-03  8.9630e-04  3.7921e-04  3.5418e-03  6.3501e-04  2.6477e-04  0:04:46 1600
  2820  3.6339e-03  8.9079e-04  3.7773e-04  3.5348e-03  6.3162e-04  2.6336e-04  0:03:49 1599
  2821  3.6253e-03  8.8080e-04  3.7783e-04  3.5266e-03  6.2811e-04  2.6188e-04  0:03:03 1598
  2822  3.6162e-03  8.9146e-04  3.7896e-04  3.5178e-03  6.2439e-04  2.6053e-04  0:02:26 1597
  2823  3.6061e-03  9.0872e-04  3.7859e-04  3.5078e-03  6.2065e-04  2.5929e-04  0:01:57 1596
  2824  3.5940e-03  9.1603e-04  3.7884e-04  3.4959e-03  6.1680e-04  2.5801e-04  0:01:33 1595
  2825  3.5823e-03  9.3487e-04  3.8022e-04  3.4844e-03  6.1277e-04  2.5666e-04  0:01:15 1594

  iter  continuity  x-velocity  y-velocity      energy           k       omega     time/iter
  2826  3.5688e-03  9.3369e-04  3.8347e-04  3.4711e-03  6.0855e-04  2.5555e-04  0:01:00 1593
  2827  3.5527e-03  9.1649e-04  3.8362e-04  3.4553e-03  6.0427e-04  2.5451e-04  0:00:48 1592
  2828  3.5383e-03  9.2058e-04  3.8202e-04  3.4413e-03  5.9988e-04  2.5353e-04  0:05:56 1591
  2829  3.5229e-03  9.2846e-04  3.8180e-04  3.4262e-03  5.9543e-04  2.5252e-04  0:04:45 1590
  2830  3.5068e-03  9.2890e-04  3.7750e-04  3.4102e-03  5.9094e-04  2.5139e-04  0:03:48 1589
  2831  3.4911e-03  9.3333e-04  3.7504e-04  3.3947e-03  5.8632e-04  2.5017e-04  0:03:02 1588
  2832  3.4730e-03  9.4412e-04  3.7357e-04  3.3768e-03  5.8169e-04  2.4925e-04  0:02:26 1587
  2833  3.4503e-03  9.2278e-04  3.7231e-04  3.3551e-03  5.7708e-04  2.4836e-04  0:01:56 1586
  2834  3.4272e-03  8.9030e-04  3.7072e-04  3.3327e-03  5.7244e-04  2.4751e-04  0:01:33 1585
  2835  3.4040e-03  8.7125e-04  3.7034e-04  3.3102e-03  5.6772e-04  2.4651e-04  0:01:14 1584
  2836  3.3817e-03  8.7575e-04  3.6943e-04  3.2886e-03  5.6307e-04  2.4547e-04  0:00:59 1583

  iter  continuity  x-velocity  y-velocity      energy           k       omega     time/iter
  2837  3.3598e-03  8.9069e-04  3.6939e-04  3.2674e-03  5.5854e-04  2.4488e-04  0:00:48 1582
  2838  3.3361e-03  8.8932e-04  3.6919e-04  3.2444e-03  5.5409e-04  2.4421e-04  0:00:38 1581
  2839  3.3145e-03  8.9114e-04  3.6929e-04  3.2230e-03  5.4972e-04  2.4357e-04  0:05:46 1580
  2840  3.2942e-03  9.1144e-04  3.6954e-04  3.2030e-03  5.4556e-04  2.4293e-04  0:04:37 1579
  2841  3.2709e-03  9.1545e-04  3.6982e-04  3.1797e-03  5.4164e-04  2.4234e-04  0:03:41 1578
  2842  3.2464e-03  9.0451e-04  3.6785e-04  3.1555e-03  5.3799e-04  2.4171e-04  0:02:57 1577
  2843  3.2236e-03  9.1482e-04  3.7029e-04  3.1327e-03  5.3451e-04  2.4101e-04  0:02:22 1576
  2844  3.2004e-03  9.2938e-04  3.7380e-04  3.1093e-03  5.3122e-04  2.4017e-04  0:01:53 1575
  2845  3.1718e-03  9.1833e-04  3.7302e-04  3.0813e-03  5.2807e-04  2.3930e-04  0:01:30 1574
  2846  3.1399e-03  8.6243e-04  3.6841e-04  3.0502e-03  5.2517e-04  2.3864e-04  0:01:12 1573
  2847  3.1107e-03  8.4080e-04  3.6633e-04  3.0216e-03  5.2239e-04  2.3797e-04  0:00:58 1572

  iter  continuity  x-velocity  y-velocity      energy           k       omega     time/iter
  2848  3.0811e-03  8.3067e-04  3.6391e-04  2.9923e-03  5.1967e-04  2.3737e-04  0:00:46 1571
  2849  3.0522e-03  8.3043e-04  3.5857e-04  2.9636e-03  5.1697e-04  2.3672e-04  0:05:51 1570
  2850  3.0241e-03  8.3230e-04  3.5491e-04  2.9355e-03  5.1432e-04  2.3591e-04  0:04:41 1569
  2851  2.9962e-03  8.3082e-04  3.5149e-04  2.9077e-03  5.1180e-04  2.3534e-04  0:03:44 1568
  2852  2.9699e-03  8.3498e-04  3.4788e-04  2.8814e-03  5.0941e-04  2.3486e-04  0:02:59 1567
  2853  2.9448e-03  8.3802e-04  3.4557e-04  2.8562e-03  5.0723e-04  2.3426e-04  0:02:23 1566
  2854  2.9193e-03  8.4527e-04  3.4420e-04  2.8310e-03  5.0527e-04  2.3372e-04  0:01:55 1565
  2855  2.8953e-03  8.4918e-04  3.4082e-04  2.8072e-03  5.0350e-04  2.3351e-04  0:01:32 1564
  2856  2.8717e-03  8.4302e-04  3.3553e-04  2.7836e-03  5.0200e-04  2.3333e-04  0:01:13 1563
  2857  2.8485e-03  8.3448e-04  3.3172e-04  2.7604e-03  5.0060e-04  2.3308e-04  0:00:59 1562
  2858  2.8286e-03  8.4801e-04  3.3130e-04  2.7407e-03  4.9923e-04  2.3275e-04  0:00:47 1561

  iter  continuity  x-velocity  y-velocity      energy           k       omega     time/iter
  2859  2.8086e-03  8.6526e-04  3.2986e-04  2.7212e-03  4.9792e-04  2.3263e-04  0:05:49 1560
  2860  2.7889e-03  8.7134e-04  3.3068e-04  2.7022e-03  4.9669e-04  2.3263e-04  0:04:39 1559
  2861  2.7698e-03  8.7448e-04  3.3533e-04  2.6835e-03  4.9543e-04  2.3268e-04  0:03:43 1558
  2862  2.7511e-03  8.6781e-04  3.3565e-04  2.6654e-03  4.9417e-04  2.3262e-04  0:02:59 1557
  2863  2.7368e-03  8.8483e-04  3.3461e-04  2.6514e-03  4.9305e-04  2.3249e-04  0:02:23 1556
  2864  2.7197e-03  8.8850e-04  3.3145e-04  2.6349e-03  4.9198e-04  2.3170e-04  0:01:54 1555
  2865  2.7017e-03  8.7880e-04  3.2818e-04  2.6176e-03  4.9089e-04  2.3102e-04  0:01:31 1554
  2866  2.6865e-03  8.8733e-04  3.2722e-04  2.6027e-03  4.8982e-04  2.3098e-04  0:01:13 1553
  2867  2.6733e-03  9.1697e-04  3.2923e-04  2.5897e-03  4.8881e-04  2.3064e-04  0:00:58 1552
  2868  2.6562e-03  9.1162e-04  3.3526e-04  2.5728e-03  4.8800e-04  2.3018e-04  0:00:47 1551
  2869  2.6428e-03  9.0218e-04  3.3909e-04  2.5592e-03  4.8739e-04  2.3010e-04  0:00:37 1550

  iter  continuity  x-velocity  y-velocity      energy           k       omega     time/iter
  2870  2.6338e-03  9.3702e-04  3.4552e-04  2.5497e-03  4.8684e-04  2.2988e-04  0:05:40 1549
  2871  2.6217e-03  9.4656e-04  3.4241e-04  2.5372e-03  4.8631e-04  2.2958e-04  0:04:32 1548
  2872  2.6019e-03  9.3042e-04  3.3879e-04  2.5180e-03  4.8569e-04  2.2919e-04  0:03:37 1547
  2873  2.5801e-03  8.7210e-04  3.3003e-04  2.4974e-03  4.8503e-04  2.2868e-04  0:02:54 1546
  2874  2.5642e-03  8.6862e-04  3.2513e-04  2.4824e-03  4.8439e-04  2.2805e-04  0:02:19 1545
  2875  2.5495e-03  8.6713e-04  3.2065e-04  2.4682e-03  4.8373e-04  2.2760e-04  0:01:51 1544
  2876  2.5352e-03  8.6021e-04  3.1697e-04  2.4541e-03  4.8305e-04  2.2726e-04  0:01:29 1543
  2877  2.5228e-03  8.5083e-04  3.1543e-04  2.4418e-03  4.8245e-04  2.2690e-04  0:01:11 1542
  2878  2.5104e-03  8.4323e-04  3.1470e-04  2.4298e-03  4.8196e-04  2.2645e-04  0:00:57 1541
  2879  2.5001e-03  8.4444e-04  3.1318e-04  2.4198e-03  4.8159e-04  2.2608e-04  0:00:45 1540
  2880  2.4912e-03  8.5410e-04  3.0893e-04  2.4111e-03  4.8134e-04  2.2578e-04  0:05:44 1539

  iter  continuity  x-velocity  y-velocity      energy           k       omega     time/iter
  2881  2.4820e-03  8.5834e-04  3.0629e-04  2.4020e-03  4.8126e-04  2.2542e-04  0:04:35 1538
  2882  2.4740e-03  8.6253e-04  3.0769e-04  2.3940e-03  4.8139e-04  2.2504e-04  0:03:40 1537
  2883  2.4653e-03  8.6801e-04  3.1001e-04  2.3860e-03  4.8178e-04  2.2453e-04  0:02:56 1536
  2884  2.4603e-03  8.7781e-04  3.1177e-04  2.3809e-03  4.8254e-04  2.2440e-04  0:02:21 1535
  2885  2.4546e-03  8.9545e-04  3.1079e-04  2.3757e-03  4.8354e-04  2.2436e-04  0:01:52 1534
  2886  2.4479e-03  8.9631e-04  3.0633e-04  2.3693e-03  4.8462e-04  2.2422e-04  0:01:30 1533
  2887  2.4402e-03  9.0712e-04  3.0768e-04  2.3621e-03  4.8579e-04  2.2356e-04  0:01:12 1532
  2888  2.4314e-03  8.9723e-04  3.1333e-04  2.3538e-03  4.8708e-04  2.2249e-04  0:00:57 1531
  2889  2.4235e-03  8.9439e-04  3.1422e-04  2.3464e-03  4.8848e-04  2.2178e-04  0:00:46 1530
  2890  2.4189e-03  9.1508e-04  3.1677e-04  2.3422e-03  4.8983e-04  2.2088e-04  0:05:42 1529
  2891  2.4125e-03  9.3562e-04  3.1669e-04  2.3364e-03  4.9125e-04  2.2000e-04  0:04:34 1528

  iter  continuity  x-velocity  y-velocity      energy           k       omega     time/iter
  2892  2.4078e-03  9.3042e-04  3.1387e-04  2.3324e-03  4.9262e-04  2.1971e-04  0:03:39 1527
  2893  2.4067e-03  9.6171e-04  3.1485e-04  2.3314e-03  4.9385e-04  2.1937e-04  0:02:55 1526
  2894  2.4039e-03  9.7731e-04  3.1466e-04  2.3284e-03  4.9501e-04  2.1889e-04  0:02:20 1525
  2895  2.4032e-03  9.7219e-04  3.1430e-04  2.3271e-03  4.9613e-04  2.1828e-04  0:01:52 1524
  2896  2.4055e-03  1.0136e-03  3.1561e-04  2.3289e-03  4.9713e-04  2.1765e-04  0:01:29 1523
  2897  2.3917e-03  9.7142e-04  3.1100e-04  2.3163e-03  4.9811e-04  2.1678e-04  0:01:11 1522
  2898  2.3848e-03  9.5570e-04  3.0656e-04  2.3110e-03  4.9904e-04  2.1622e-04  0:00:57 1521
  2899  2.3778e-03  9.3080e-04  3.0238e-04  2.3055e-03  4.9997e-04  2.1579e-04  0:00:46 1520
  2900  2.3691e-03  9.0484e-04  2.9913e-04  2.2980e-03  5.0095e-04  2.1535e-04  0:00:37 1519
  2901  2.3628e-03  8.8322e-04  2.9144e-04  2.2923e-03  5.0192e-04  2.1486e-04  0:05:33 1518
  2902  2.3578e-03  8.6820e-04  2.8915e-04  2.2878e-03  5.0285e-04  2.1415e-04  0:04:26 1517

  iter  continuity  x-velocity  y-velocity      energy           k       omega     time/iter
  2903  2.3553e-03  8.6827e-04  2.9186e-04  2.2856e-03  5.0384e-04  2.1346e-04  0:03:33 1516
  2904  2.3545e-03  8.7179e-04  2.9602e-04  2.2848e-03  5.0475e-04  2.1271e-04  0:02:50 1515
  2905  2.3530e-03  8.7308e-04  2.9699e-04  2.2840e-03  5.0558e-04  2.1233e-04  0:02:16 1514
  2906  2.3519e-03  8.8058e-04  2.9747e-04  2.2831e-03  5.0638e-04  2.1190e-04  0:01:49 1513
  2907  2.3510e-03  8.9164e-04  2.9845e-04  2.2823e-03  5.0710e-04  2.1149e-04  0:01:27 1512
  2908  2.3519e-03  8.9521e-04  3.0172e-04  2.2829e-03  5.0764e-04  2.1091e-04  0:01:09 1511
  2909  2.3499e-03  8.9948e-04  3.0847e-04  2.2813e-03  5.0822e-04  2.1030e-04  0:00:56 1510
  2910  2.3483e-03  8.8778e-04  3.1282e-04  2.2800e-03  5.0879e-04  2.0966e-04  0:00:44 1509
  2911  2.3465e-03  8.8832e-04  3.0857e-04  2.2786e-03  5.0945e-04  2.0891e-04  0:05:37 1508
  2912  2.3472e-03  9.1184e-04  3.0556e-04  2.2798e-03  5.1001e-04  2.0865e-04  0:04:30 1507
  2913  2.3453e-03  9.2507e-04  3.0448e-04  2.2789e-03  5.1036e-04  2.0839e-04  0:03:35 1506

  iter  continuity  x-velocity  y-velocity      energy           k       omega     time/iter
  2914  2.3450e-03  9.2149e-04  3.0242e-04  2.2794e-03  5.1056e-04  2.0800e-04  0:02:52 1505
  2915  2.3466e-03  9.3669e-04  3.0192e-04  2.2812e-03  5.1069e-04  2.0675e-04  0:02:18 1504
  2916  2.3493e-03  9.6381e-04  3.0067e-04  2.2841e-03  5.1071e-04  2.0552e-04  0:01:50 1503
  2917  2.3498e-03  9.4428e-04  2.9618e-04  2.2851e-03  5.1062e-04  2.0477e-04  0:01:28 1502
  2918  2.3565e-03  9.6804e-04  2.9713e-04  2.2916e-03  5.1058e-04  2.0372e-04  0:06:11 1501
  2919  2.3643e-03  9.8203e-04  2.9577e-04  2.2988e-03  5.1055e-04  2.0304e-04  0:04:56 1500
  2920  2.3575e-03  9.5349e-04  2.9465e-04  2.2929e-03  5.1049e-04  2.0244e-04  0:03:57 1499
  2921  2.3470e-03  8.6697e-04  2.8428e-04  2.2845e-03  5.1046e-04  2.0180e-04  0:03:09 1498
  2922  2.3438e-03  8.4144e-04  2.7966e-04  2.2825e-03  5.1049e-04  2.0104e-04  0:02:31 1497
  2923  2.3435e-03  8.3710e-04  2.7788e-04  2.2832e-03  5.1045e-04  2.0032e-04  0:02:01 1496
  2924  2.3437e-03  8.3068e-04  2.7701e-04  2.2839e-03  5.1042e-04  1.9974e-04  0:01:37 1495

  iter  continuity  x-velocity  y-velocity      energy           k       omega     time/iter
  2925  2.3441e-03  8.2532e-04  2.7802e-04  2.2845e-03  5.1040e-04  1.9912e-04  0:01:17 1494
  2926  2.3434e-03  8.3006e-04  2.7762e-04  2.2846e-03  5.1031e-04  1.9834e-04  0:01:02 1493
  2927  2.3423e-03  8.2714e-04  2.7914e-04  2.2837e-03  5.1019e-04  1.9784e-04  0:00:49 1492
  2928  2.3410e-03  8.3280e-04  2.8368e-04  2.2825e-03  5.1003e-04  1.9742e-04  0:00:40 1491
  2929  2.3399e-03  8.3990e-04  2.8889e-04  2.2815e-03  5.0982e-04  1.9690e-04  0:05:30 1490
  2930  2.3383e-03  8.4457e-04  2.9350e-04  2.2799e-03  5.0958e-04  1.9632e-04  0:04:24 1489
  2931  2.3336e-03  8.3705e-04  2.9457e-04  2.2760e-03  5.0934e-04  1.9559e-04  0:03:31 1488
  2932  2.3296e-03  8.4032e-04  2.9163e-04  2.2723e-03  5.0910e-04  1.9491e-04  0:02:48 1487
  2933  2.3253e-03  8.4853e-04  2.8516e-04  2.2683e-03  5.0874e-04  1.9430e-04  0:02:15 1486
  2934  2.3214e-03  8.5750e-04  2.8327e-04  2.2650e-03  5.0821e-04  1.9349e-04  0:01:48 1485
  2935  2.3157e-03  8.7100e-04  2.8417e-04  2.2601e-03  5.0756e-04  1.9293e-04  0:01:26 1484

  iter  continuity  x-velocity  y-velocity      energy           k       omega     time/iter
  2936  2.3073e-03  8.5196e-04  2.8610e-04  2.2521e-03  5.0686e-04  1.9245e-04  0:01:09 1483
  2937  2.3016e-03  8.5429e-04  2.8282e-04  2.2472e-03  5.0620e-04  1.9187e-04  0:00:55 1482
  2938  2.2999e-03  8.8199e-04  2.7909e-04  2.2462e-03  5.0560e-04  1.9118e-04  0:00:44 1481
  2939  2.2971e-03  8.9313e-04  2.7836e-04  2.2438e-03  5.0503e-04  1.9085e-04  0:05:31 1480
  2940  2.2933e-03  8.7840e-04  2.8142e-04  2.2403e-03  5.0455e-04  1.9055e-04  0:04:25 1479
  2941  2.2953e-03  8.9592e-04  2.8291e-04  2.2418e-03  5.0416e-04  1.9025e-04  0:03:32 1478
  2942  2.2964e-03  9.1234e-04  2.8306e-04  2.2421e-03  5.0380e-04  1.9007e-04  0:02:49 1477
  2943  2.2885e-03  9.0089e-04  2.8229e-04  2.2348e-03  5.0357e-04  1.8973e-04  0:02:15 1476
  2944  2.2748e-03  8.0942e-04  2.7439e-04  2.2229e-03  5.0339e-04  1.8854e-04  0:01:48 1475
  2945  2.2695e-03  7.9027e-04  2.7327e-04  2.2188e-03  5.0323e-04  1.8759e-04  0:01:26 1474
  2946  2.2680e-03  7.9354e-04  2.7340e-04  2.2177e-03  5.0310e-04  1.8722e-04  0:01:09 1473

  iter  continuity  x-velocity  y-velocity      energy           k       omega     time/iter
  2947  2.2656e-03  8.0077e-04  2.7346e-04  2.2159e-03  5.0294e-04  1.8679e-04  0:00:55 1472
  2948  2.2635e-03  8.0117e-04  2.7363e-04  2.2144e-03  5.0277e-04  1.8626e-04  0:00:44 1471
  2949  2.2565e-03  7.8343e-04  2.6984e-04  2.2078e-03  5.0257e-04  1.8561e-04  0:00:35 1470
  2950  2.2513e-03  7.5002e-04  2.6637e-04  2.2030e-03  5.0241e-04  1.8495e-04  0:05:22 1469
  2951  2.2470e-03  7.3564e-04  2.6646e-04  2.1990e-03  5.0228e-04  1.8433e-04  0:04:17 1468
  2952  2.2442e-03  7.3857e-04  2.7089e-04  2.1962e-03  5.0218e-04  1.8371e-04  0:03:26 1467
  2953  2.2403e-03  7.3804e-04  2.6898e-04  2.1926e-03  5.0208e-04  1.8309e-04  0:02:45 1466
  2954  2.2377e-03  7.3351e-04  2.6740e-04  2.1903e-03  5.0205e-04  1.8252e-04  0:02:12 1465
  2955  2.2355e-03  7.3481e-04  2.6699e-04  2.1881e-03  5.0195e-04  1.8165e-04  0:01:45 1464
  2956  2.2320e-03  7.2322e-04  2.6535e-04  2.1846e-03  5.0186e-04  1.8121e-04  0:01:24 1463
  2957  2.2301e-03  7.3532e-04  2.6347e-04  2.1829e-03  5.0168e-04  1.8074e-04  0:01:07 1462

  iter  continuity  x-velocity  y-velocity      energy           k       omega     time/iter
  2958  2.2255e-03  7.2767e-04  2.6241e-04  2.1792e-03  5.0152e-04  1.8026e-04  0:00:54 1461
  2959  2.2242e-03  7.2756e-04  2.6024e-04  2.1785e-03  5.0142e-04  1.7982e-04  0:00:43 1460
  2960  2.2252e-03  7.4717e-04  2.6019e-04  2.1796e-03  5.0133e-04  1.7925e-04  0:05:26 1459
  2961  2.2252e-03  7.7286e-04  2.5876e-04  2.1800e-03  5.0121e-04  1.7867e-04  0:04:21 1458
  2962  2.2221e-03  7.5528e-04  2.5426e-04  2.1772e-03  5.0107e-04  1.7807e-04  0:03:28 1457
  2963  2.2240e-03  7.5856e-04  2.5412e-04  2.1789e-03  5.0093e-04  1.7734e-04  0:02:47 1456
  2964  2.2263e-03  7.7330e-04  2.5696e-04  2.1810e-03  5.0084e-04  1.7660e-04  0:02:13 1455
  2965  2.2301e-03  7.7063e-04  2.5758e-04  2.1838e-03  5.0076e-04  1.7588e-04  0:01:47 1454
  2966  2.2361e-03  8.1766e-04  2.5975e-04  2.1892e-03  5.0065e-04  1.7540e-04  0:01:25 1453
  2967  2.2241e-03  7.4963e-04  2.5516e-04  2.1784e-03  5.0051e-04  1.7490e-04  0:01:08 1452
  2968  2.2178e-03  6.8493e-04  2.4869e-04  2.1736e-03  5.0039e-04  1.7430e-04  0:00:54 1451

  iter  continuity  x-velocity  y-velocity      energy           k       omega     time/iter
  2969  2.2148e-03  6.6258e-04  2.4627e-04  2.1716e-03  5.0026e-04  1.7365e-04  0:00:44 1450
  2970  2.2112e-03  6.4685e-04  2.4250e-04  2.1687e-03  5.0017e-04  1.7290e-04  0:05:25 1449
  2971  2.2091e-03  6.2941e-04  2.3499e-04  2.1667e-03  5.0015e-04  1.7200e-04  0:04:19 1448
  2972  2.2074e-03  6.2283e-04  2.3456e-04  2.1650e-03  5.0024e-04  1.7120e-04  0:03:27 1447
  2973  2.2050e-03  6.1509e-04  2.3716e-04  2.1626e-03  5.0035e-04  1.7053e-04  0:02:46 1446
  2974  2.2040e-03  6.2089e-04  2.3800e-04  2.1615e-03  5.0049e-04  1.6958e-04  0:02:13 1445
  2975  2.2043e-03  6.3076e-04  2.4214e-04  2.1614e-03  5.0067e-04  1.6825e-04  0:01:46 1444
  2976  2.2022e-03  6.3816e-04  2.4510e-04  2.1594e-03  5.0082e-04  1.6666e-04  0:01:25 1443
  2977  2.2002e-03  6.4777e-04  2.4483e-04  2.1576e-03  5.0100e-04  1.6529e-04  0:01:08 1442
  2978  2.1984e-03  6.5289e-04  2.4577e-04  2.1559e-03  5.0124e-04  1.6472e-04  0:00:54 1441
  2979  2.1962e-03  6.4941e-04  2.4241e-04  2.1537e-03  5.0141e-04  1.6405e-04  0:00:43 1440

  iter  continuity  x-velocity  y-velocity      energy           k       omega     time/iter
  2980  2.1954e-03  6.4730e-04  2.4133e-04  2.1529e-03  5.0155e-04  1.6340e-04  0:00:35 1439
  2981  2.1934e-03  6.5599e-04  2.4255e-04  2.1509e-03  5.0160e-04  1.6274e-04  0:05:15 1438
  2982  2.1886e-03  6.5195e-04  2.4296e-04  2.1466e-03  5.0163e-04  1.6194e-04  0:04:12 1437
  2983  2.1848e-03  6.5118e-04  2.3717e-04  2.1430e-03  5.0166e-04  1.6113e-04  0:03:21 1436
  2984  2.1819e-03  6.6037e-04  2.3391e-04  2.1403e-03  5.0168e-04  1.6038e-04  0:02:41 1435
  2985  2.1802e-03  6.9119e-04  2.3524e-04  2.1388e-03  5.0166e-04  1.5963e-04  0:02:09 1434
  2986  2.1738e-03  7.0932e-04  2.3762e-04  2.1326e-03  5.0166e-04  1.5887e-04  0:01:43 1433
  2987  2.1680e-03  6.9945e-04  2.3745e-04  2.1271e-03  5.0164e-04  1.5821e-04  0:01:22 1432
  2988  2.1661e-03  7.2222e-04  2.3714e-04  2.1249e-03  5.0159e-04  1.5750e-04  0:01:06 1431
  2989  2.1631e-03  7.5458e-04  2.3799e-04  2.1214e-03  5.0153e-04  1.5676e-04  0:00:53 1430
  2990  2.1595e-03  7.4066e-04  2.3562e-04  2.1169e-03  5.0145e-04  1.5608e-04  0:00:42 1429

  iter  continuity  x-velocity  y-velocity      energy           k       omega     time/iter
  2991  2.1624e-03  8.1926e-04  2.4059e-04  2.1184e-03  5.0131e-04  1.5529e-04  0:05:19 1428
  2992  2.1460e-03  7.8482e-04  2.3800e-04  2.1026e-03  5.0111e-04  1.5448e-04  0:04:15 1427
  2993  2.1235e-03  6.9597e-04  2.3052e-04  2.0818e-03  5.0085e-04  1.5366e-04  0:03:24 1426
  2994  2.1040e-03  6.1841e-04  2.2592e-04  2.0640e-03  5.0053e-04  1.5286e-04  0:02:43 1425
  2995  2.0891e-03  5.9284e-04  2.2364e-04  2.0500e-03  5.0027e-04  1.5189e-04  0:02:10 1424
  2996  2.0745e-03  5.7925e-04  2.1990e-04  2.0356e-03  5.0002e-04  1.5114e-04  0:01:44 1423
  2997  2.0602e-03  5.6499e-04  2.1364e-04  2.0213e-03  4.9980e-04  1.5058e-04  0:01:23 1422
  2998  2.0461e-03  5.6347e-04  2.1147e-04  2.0070e-03  4.9959e-04  1.5001e-04  0:01:07 1421
  2999  2.0325e-03  5.6406e-04  2.1116e-04  1.9932e-03  4.9937e-04  1.4944e-04  0:00:53 1420
  3000  2.0186e-03  5.6505e-04  2.1280e-04  1.9789e-03  4.9917e-04  1.4889e-04  0:00:43 1419
  3001  2.0031e-03  5.6719e-04  2.1750e-04  1.9636e-03  4.9900e-04  1.4827e-04  0:05:18 1418

  iter  continuity  x-velocity  y-velocity      energy           k       omega     time/iter
  3002  1.9892e-03  5.8105e-04  2.1797e-04  1.9497e-03  4.9881e-04  1.4759e-04  0:04:14 1417
  3003  1.9744e-03  5.8910e-04  2.1945e-04  1.9346e-03  4.9859e-04  1.4644e-04  0:03:23 1416
  3004  1.9581e-03  5.7959e-04  2.2104e-04  1.9178e-03  4.9839e-04  1.4539e-04  0:02:42 1415
  3005  1.9419e-03  5.7064e-04  2.2132e-04  1.9012e-03  4.9823e-04  1.4461e-04  0:02:10 1414
  3006  1.9275e-03  5.7433e-04  2.1897e-04  1.8862e-03  4.9801e-04  1.4404e-04  0:01:44 1413
  3007  1.9100e-03  5.7953e-04  2.1572e-04  1.8688e-03  4.9775e-04  1.4344e-04  0:01:23 1412
  3008  1.8938e-03  5.8334e-04  2.1487e-04  1.8526e-03  4.9744e-04  1.4294e-04  0:01:06 1411
  3009  1.8740e-03  5.6790e-04  2.1403e-04  1.8327e-03  4.9714e-04  1.4241e-04  0:00:53 1410
  3010  1.8555e-03  5.6407e-04  2.1330e-04  1.8141e-03  4.9686e-04  1.4190e-04  0:05:24 1409
  3011  1.8395e-03  5.8690e-04  2.1309e-04  1.7982e-03  4.9661e-04  1.4127e-04  0:04:19 1408
  3012  1.8232e-03  6.1529e-04  2.1319e-04  1.7821e-03  4.9636e-04  1.4095e-04  0:03:27 1407

  iter  continuity  x-velocity  y-velocity      energy           k       omega     time/iter
  3013  1.8058e-03  6.2053e-04  2.1404e-04  1.7646e-03  4.9614e-04  1.4060e-04  0:02:46 1406
  3014  1.7883e-03  6.1842e-04  2.1497e-04  1.7471e-03  4.9592e-04  1.4029e-04  0:02:12 1405
  3015  1.7742e-03  6.3437e-04  2.1701e-04  1.7328e-03  4.9568e-04  1.3998e-04  0:01:46 1404
  3016  1.7602e-03  6.5488e-04  2.1823e-04  1.7181e-03  4.9542e-04  1.3960e-04  0:01:25 1403
  3017  1.7437e-03  6.3040e-04  2.1362e-04  1.7013e-03  4.9513e-04  1.3928e-04  0:01:08 1402
  3018  1.7419e-03  6.9644e-04  2.1627e-04  1.6980e-03  4.9480e-04  1.3886e-04  0:00:54 1401
  3019  1.7234e-03  7.0668e-04  2.1624e-04  1.6796e-03  4.9444e-04  1.3840e-04  0:00:43 1400
  3020  1.6946e-03  6.0118e-04  2.1291e-04  1.6522e-03  4.9404e-04  1.3783e-04  0:05:14 1399
  3021  1.6749e-03  5.6251e-04  2.1165e-04  1.6335e-03  4.9357e-04  1.3721e-04  0:04:11 1398
  3022  1.6568e-03  5.4530e-04  2.0947e-04  1.6164e-03  4.9306e-04  1.3650e-04  0:03:21 1397
  3023  1.6425e-03  5.3848e-04  2.0796e-04  1.6025e-03  4.9250e-04  1.3567e-04  0:02:41 1396

  iter  continuity  x-velocity  y-velocity      energy           k       omega     time/iter
  3024  1.6295e-03  5.3364e-04  2.0723e-04  1.5895e-03  4.9186e-04  1.3494e-04  0:02:08 1395
  3025  1.6181e-03  5.3296e-04  2.0471e-04  1.5781e-03  4.9114e-04  1.3423e-04  0:01:43 1394
  3026  1.6070e-03  5.3740e-04  2.0373e-04  1.5669e-03  4.9033e-04  1.3361e-04  0:01:22 1393
  3027  1.5956e-03  5.4054e-04  2.0127e-04  1.5554e-03  4.8945e-04  1.3291e-04  0:01:06 1392
  3028  1.5844e-03  5.4232e-04  1.9848e-04  1.5441e-03  4.8859e-04  1.3222e-04  0:00:52 1391
  3029  1.5739e-03  5.4281e-04  2.0032e-04  1.5334e-03  4.8772e-04  1.3156e-04  0:00:42 1390
  3030  1.5646e-03  5.4390e-04  2.0358e-04  1.5239e-03  4.8683e-04  1.3092e-04  0:05:11 1389
  3031  1.5582e-03  5.5218e-04  2.0349e-04  1.5171e-03  4.8594e-04  1.3028e-04  0:04:09 1388
  3032  1.5545e-03  5.7128e-04  2.0525e-04  1.5129e-03  4.8506e-04  1.2969e-04  0:03:19 1387
  3033  1.5497e-03  5.7136e-04  2.0784e-04  1.5072e-03  4.8420e-04  1.2917e-04  0:02:39 1386
  3034  1.5483e-03  5.9492e-04  2.1006e-04  1.5053e-03  4.8332e-04  1.2870e-04  0:02:07 1385

  iter  continuity  x-velocity  y-velocity      energy           k       omega     time/iter
  3035  1.5456e-03  6.1382e-04  2.1246e-04  1.5027e-03  4.8247e-04  1.2833e-04  0:01:42 1384
  3036  1.5385e-03  5.9520e-04  2.1310e-04  1.4960e-03  4.8154e-04  1.2791e-04  0:01:21 1383
  3037  1.5308e-03  5.5385e-04  2.1091e-04  1.4891e-03  4.8055e-04  1.2747e-04  0:01:05 1382
  3038  1.5297e-03  5.4707e-04  2.0827e-04  1.4885e-03  4.7948e-04  1.2706e-04  0:00:52 1381
  3039  1.5293e-03  5.3740e-04  2.0943e-04  1.4884e-03  4.7838e-04  1.2676e-04  0:00:42 1380
  3040  1.5312e-03  5.4469e-04  2.0934e-04  1.4908e-03  4.7728e-04  1.2650e-04  0:05:09 1379
  3041  1.5360e-03  5.4051e-04  2.0971e-04  1.4958e-03  4.7613e-04  1.2619e-04  0:04:07 1378
  3042  1.5444e-03  5.5696e-04  2.0961e-04  1.5043e-03  4.7501e-04  1.2578e-04  0:03:17 1377
  3043  1.5534e-03  5.6086e-04  2.1079e-04  1.5133e-03  4.7394e-04  1.2571e-04  0:02:38 1376
  3044  1.5670e-03  5.8211e-04  2.1114e-04  1.5270e-03  4.7293e-04  1.2547e-04  0:02:06 1375
  3045  1.5802e-03  5.8727e-04  2.1279e-04  1.5403e-03  4.7199e-04  1.2514e-04  0:01:41 1374

  iter  continuity  x-velocity  y-velocity      energy           k       omega     time/iter
  3046  1.5987e-03  5.8460e-04  2.1390e-04  1.5585e-03  4.7114e-04  1.2484e-04  0:01:21 1373
  3047  1.6192e-03  5.8017e-04  2.1743e-04  1.5786e-03  4.7038e-04  1.2460e-04  0:05:39 1372
  3048  1.6498e-03  6.3347e-04  2.2002e-04  1.6080e-03  4.6972e-04  1.2442e-04  0:04:31 1371
  3049  1.6709e-03  6.5502e-04  2.1760e-04  1.6296e-03  4.6926e-04  1.2412e-04  0:03:37 1370
  3050  1.6831e-03  5.7235e-04  2.1203e-04  1.6432e-03  4.6945e-04  1.2408e-04  0:02:53 1369
  3051  1.7045e-03  5.3071e-04  2.0931e-04  1.6659e-03  4.7010e-04  1.2419e-04  0:02:18 1368
  3052  1.7303e-03  5.1218e-04  2.0823e-04  1.6925e-03  4.7097e-04  1.2428e-04  0:01:51 1367
  3053  1.7586e-03  4.9842e-04  2.0712e-04  1.7212e-03  4.7208e-04  1.2439e-04  0:01:28 1366
  3054  1.7883e-03  4.9637e-04  2.0699e-04  1.7511e-03  4.7334e-04  1.2453e-04  0:01:11 1365
  3055  1.8185e-03  4.8669e-04  2.0772e-04  1.7814e-03  4.7472e-04  1.2464e-04  0:00:57 1364
  3056  1.8501e-03  4.8101e-04  2.0802e-04  1.8131e-03  4.7621e-04  1.2478e-04  0:00:45 1363

  iter  continuity  x-velocity  y-velocity      energy           k       omega     time/iter
  3057  1.8831e-03  4.8426e-04  2.0929e-04  1.8463e-03  4.7780e-04  1.2488e-04  0:00:36 1362
  3058  1.9166e-03  4.8651e-04  2.0960e-04  1.8798e-03  4.7945e-04  1.2502e-04  0:05:01 1361
  3059  1.9500e-03  4.9222e-04  2.0707e-04  1.9133e-03  4.8116e-04  1.2516e-04  0:04:01 1360
  3060  1.9831e-03  4.9361e-04  2.0538e-04  1.9462e-03  4.8292e-04  1.2522e-04  0:03:12 1359
  3061  2.0155e-03  4.9303e-04  2.0727e-04  1.9785e-03  4.8470e-04  1.2511e-04  0:02:34 1358
  3062  2.0482e-03  4.9372e-04  2.0917e-04  2.0113e-03  4.8649e-04  1.2532e-04  0:02:03 1357
  3063  2.0801e-03  4.9676e-04  2.1075e-04  2.0432e-03  4.8831e-04  1.2553e-04  0:01:38 1356
  3064  2.1109e-03  5.0125e-04  2.1456e-04  2.0744e-03  4.9009e-04  1.2573e-04  0:01:19 1355
  3065  2.1421e-03  5.1143e-04  2.1562e-04  2.1059e-03  4.9190e-04  1.2593e-04  0:01:03 1354
  3066  2.1723e-03  5.1519e-04  2.1583e-04  2.1361e-03  4.9367e-04  1.2611e-04  0:00:50 1353
  3067  2.2014e-03  5.1365e-04  2.1763e-04  2.1653e-03  4.9537e-04  1.2635e-04  0:00:40 1352

  iter  continuity  x-velocity  y-velocity      energy           k       omega     time/iter
  3068  2.2306e-03  5.1433e-04  2.1985e-04  2.1945e-03  4.9699e-04  1.2664e-04  0:05:02 1351
  3069  2.2600e-03  5.2469e-04  2.2331e-04  2.2240e-03  4.9854e-04  1.2697e-04  0:04:02 1350
  3070  2.2880e-03  5.4605e-04  2.2386e-04  2.2521e-03  5.0004e-04  1.2733e-04  0:03:13 1349
  3071  2.3144e-03  5.5670e-04  2.2091e-04  2.2790e-03  5.0145e-04  1.2769e-04  0:02:34 1348
  3072  2.3380e-03  5.5028e-04  2.1917e-04  2.3028e-03  5.0276e-04  1.2806e-04  0:02:03 1347
  3073  2.3625e-03  5.6162e-04  2.2000e-04  2.3275e-03  5.0399e-04  1.2826e-04  0:01:39 1346
  3074  2.3867e-03  5.7314e-04  2.2163e-04  2.3518e-03  5.0517e-04  1.2876e-04  0:01:19 1345
  3075  2.4110e-03  6.0324e-04  2.2359e-04  2.3763e-03  5.0629e-04  1.2927e-04  0:01:03 1344
  3076  2.4316e-03  6.0711e-04  2.2629e-04  2.3968e-03  5.0734e-04  1.2967e-04  0:00:50 1343
  3077  2.4510e-03  6.0029e-04  2.2603e-04  2.4162e-03  5.0833e-04  1.2998e-04  0:00:40 1342
  3078  2.4725e-03  6.0033e-04  2.2840e-04  2.4373e-03  5.0923e-04  1.3023e-04  0:05:00 1341

  iter  continuity  x-velocity  y-velocity      energy           k       omega     time/iter
  3079  2.4958e-03  6.5940e-04  2.3071e-04  2.4597e-03  5.1001e-04  1.3037e-04  0:04:00 1340
  3080  2.5155e-03  6.9499e-04  2.3074e-04  2.4791e-03  5.1066e-04  1.3036e-04  0:03:12 1339
  3081  2.5281e-03  7.1957e-04  2.2943e-04  2.4920e-03  5.1120e-04  1.3026e-04  0:02:33 1338
  3082  2.5287e-03  6.0136e-04  2.2590e-04  2.4938e-03  5.1167e-04  1.3046e-04  0:02:03 1337
  3083  2.5349e-03  5.6457e-04  2.2233e-04  2.5009e-03  5.1208e-04  1.3063e-04  0:01:38 1336
  3084  2.5398e-03  5.4675e-04  2.2074e-04  2.5064e-03  5.1244e-04  1.3075e-04  0:01:18 1335
  3085  2.5438e-03  5.3274e-04  2.1879e-04  2.5107e-03  5.1276e-04  1.3095e-04  0:01:03 1334
  3086  2.5464e-03  5.3096e-04  2.1753e-04  2.5134e-03  5.1302e-04  1.3110e-04  0:00:50 1333
  3087  2.5477e-03  5.3577e-04  2.1611e-04  2.5147e-03  5.1321e-04  1.3127e-04  0:00:40 1332
  3088  2.5470e-03  5.4023e-04  2.1529e-04  2.5138e-03  5.1331e-04  1.3146e-04  0:00:32 1331
  3089  2.5441e-03  5.4279e-04  2.1383e-04  2.5109e-03  5.1333e-04  1.3170e-04  0:04:52 1330

  iter  continuity  x-velocity  y-velocity      energy           k       omega     time/iter
  3090  2.5392e-03  5.4788e-04  2.1279e-04  2.5060e-03  5.1328e-04  1.3202e-04  0:03:53 1329
  3091  2.5325e-03  5.5312e-04  2.1117e-04  2.4993e-03  5.1312e-04  1.3238e-04  0:03:06 1328
  3092  2.5246e-03  5.6044e-04  2.0965e-04  2.4914e-03  5.1290e-04  1.3274e-04  0:02:29 1327
  3093  2.5153e-03  5.7132e-04  2.0990e-04  2.4820e-03  5.1263e-04  1.3310e-04  0:01:59 1326
  3094  2.5042e-03  5.8159e-04  2.1032e-04  2.4708e-03  5.1232e-04  1.3338e-04  0:01:35 1325
  3095  2.4918e-03  5.9518e-04  2.0861e-04  2.4584e-03  5.1194e-04  1.3355e-04  0:01:16 1324
  3096  2.4778e-03  5.9897e-04  2.0816e-04  2.4443e-03  5.1141e-04  1.3404e-04  0:01:01 1323
  3097  2.4624e-03  5.9891e-04  2.0905e-04  2.4288e-03  5.1079e-04  1.3441e-04  0:00:49 1322
  3098  2.4461e-03  6.0429e-04  2.0907e-04  2.4125e-03  5.1008e-04  1.3448e-04  0:00:39 1321
  3099  2.4291e-03  6.0645e-04  2.0950e-04  2.3953e-03  5.0928e-04  1.3467e-04  0:04:55 1320
  3100  2.4113e-03  6.0865e-04  2.1151e-04  2.3773e-03  5.0840e-04  1.3496e-04  0:03:56 1319

  iter  continuity  x-velocity  y-velocity      energy           k       omega     time/iter
  3101  2.3923e-03  6.1669e-04  2.1057e-04  2.3582e-03  5.0751e-04  1.3525e-04  0:03:09 1318
  3102  2.3715e-03  6.1575e-04  2.0967e-04  2.3377e-03  5.0655e-04  1.3553e-04  0:02:31 1317
  3103  2.3517e-03  6.2369e-04  2.1022e-04  2.3180e-03  5.0552e-04  1.3571e-04  0:02:00 1316
  3104  2.3312e-03  6.2498e-04  2.1168e-04  2.2976e-03  5.0442e-04  1.3586e-04  0:01:36 1315
  3105  2.3110e-03  6.2947e-04  2.1299e-04  2.2773e-03  5.0328e-04  1.3607e-04  0:01:17 1314
  3106  2.2923e-03  6.3762e-04  2.1559e-04  2.2586e-03  5.0206e-04  1.3633e-04  0:01:02 1313
  3107  2.2753e-03  6.6332e-04  2.1798e-04  2.2416e-03  5.0073e-04  1.3655e-04  0:00:49 1312
  3108  2.2569e-03  6.7161e-04  2.1702e-04  2.2232e-03  4.9928e-04  1.3673e-04  0:00:39 1311
  3109  2.2396e-03  6.7191e-04  2.1659e-04  2.2058e-03  4.9777e-04  1.3693e-04  0:00:31 1310
  3110  2.2241e-03  6.7320e-04  2.1925e-04  2.1903e-03  4.9610e-04  1.3708e-04  0:04:47 1309
  3111  2.2124e-03  6.9326e-04  2.2160e-04  2.1782e-03  4.9436e-04  1.3720e-04  0:03:49 1308

  iter  continuity  x-velocity  y-velocity      energy           k       omega     time/iter
  3112  2.1997e-03  6.8957e-04  2.2144e-04  2.1654e-03  4.9256e-04  1.3738e-04  0:03:03 1307
  3113  2.1954e-03  7.3610e-04  2.2234e-04  2.1603e-03  4.9071e-04  1.3746e-04  0:02:27 1306
  3114  2.1879e-03  7.6253e-04  2.2277e-04  2.1528e-03  4.8878e-04  1.3750e-04  0:01:57 1305
  3115  2.1718e-03  7.0671e-04  2.2007e-04  2.1375e-03  4.8678e-04  1.3751e-04  0:01:34 1304
  3116  2.1634e-03  6.7832e-04  2.1858e-04  2.1298e-03  4.8472e-04  1.3743e-04  0:01:15 1303
  3117  2.1580e-03  6.6459e-04  2.1812e-04  2.1248e-03  4.8256e-04  1.3713e-04  0:01:00 1302
  3118  2.1553e-03  6.5949e-04  2.1708e-04  2.1224e-03  4.8029e-04  1.3720e-04  0:00:48 1301
  3119  2.1555e-03  6.5796e-04  2.1582e-04  2.1228e-03  4.7792e-04  1.3722e-04  0:00:38 1300
  3120  2.1580e-03  6.5791e-04  2.1466e-04  2.1254e-03  4.7546e-04  1.3716e-04  0:04:50 1299
  3121  2.1635e-03  6.5946e-04  2.1385e-04  2.1308e-03  4.7290e-04  1.3693e-04  0:03:52 1298
  3122  2.1713e-03  6.5794e-04  2.1387e-04  2.1385e-03  4.7027e-04  1.3672e-04  0:03:06 1297

  iter  continuity  x-velocity  y-velocity      energy           k       omega     time/iter
[...]
  3910  1.4242e-03  2.7587e-04  1.3290e-04  1.3788e-03  2.1865e-04  9.2439e-05  0:00:19  509
  3911  1.4195e-03  2.7674e-04  1.3321e-04  1.3741e-03  2.1896e-04  9.2355e-05  0:00:15  508
  3912  1.4150e-03  2.7606e-04  1.3362e-04  1.3696e-03  2.1937e-04  9.2270e-05  0:00:12  507
  3913  1.4117e-03  2.9120e-04  1.3332e-04  1.3663e-03  2.1977e-04  9.2153e-05  0:01:51  506
  3914  1.4085e-03  2.9918e-04  1.3282e-04  1.3631e-03  2.2020e-04  9.2056e-05  0:01:29  505

  iter  continuity  x-velocity  y-velocity      energy           k       omega     time/iter
  3915  1.4052e-03  3.0716e-04  1.3241e-04  1.3598e-03  2.2070e-04  9.1999e-05  0:01:11  504
  3916  1.4021e-03  3.0575e-04  1.3241e-04  1.3567e-03  2.2130e-04  9.1964e-05  0:00:56  503
  3917  1.3994e-03  3.0125e-04  1.3294e-04  1.3541e-03  2.2205e-04  9.1935e-05  0:00:45  502
  3918  1.3970e-03  2.9891e-04  1.3330e-04  1.3518e-03  2.2288e-04  9.1910e-05  0:00:36  501
  3919  1.3950e-03  2.9773e-04  1.3360e-04  1.3500e-03  2.2380e-04  9.1859e-05  0:00:29  500
  3920  1.3935e-03  2.9725e-04  1.3416e-04  1.3487e-03  2.2480e-04  9.1827e-05  0:00:23  499
  3921  1.3924e-03  2.9675e-04  1.3534e-04  1.3478e-03  2.2588e-04  9.1824e-05  0:00:18  498
  3922  1.3917e-03  2.9441e-04  1.3579e-04  1.3473e-03  2.2699e-04  9.1883e-05  0:01:54  497
  3923  1.3917e-03  2.9185e-04  1.3557e-04  1.3475e-03  2.2809e-04  9.1917e-05  0:01:31  496
  3924  1.3923e-03  2.8665e-04  1.3539e-04  1.3483e-03  2.2923e-04  9.1920e-05  0:01:13  495
  3925  1.3935e-03  2.7871e-04  1.3506e-04  1.3497e-03  2.3040e-04  9.1891e-05  0:00:58  494

  iter  continuity  x-velocity  y-velocity      energy           k       omega     time/iter
  3926  1.3944e-03  2.7264e-04  1.3486e-04  1.3507e-03  2.3156e-04  9.1816e-05  0:00:46  493
  3927  1.3961e-03  2.7023e-04  1.3520e-04  1.3526e-03  2.3274e-04  9.1777e-05  0:00:37  492
  3928  1.3985e-03  2.6820e-04  1.3460e-04  1.3553e-03  2.3390e-04  9.1722e-05  0:00:30  491
  3929  1.4016e-03  2.6684e-04  1.3443e-04  1.3587e-03  2.3511e-04  9.1698e-05  0:00:24  490
  3930  1.4054e-03  2.6742e-04  1.3334e-04  1.3628e-03  2.3629e-04  9.1677e-05  0:00:19  489
  3931  1.4100e-03  2.6815e-04  1.3245e-04  1.3676e-03  2.3744e-04  9.1618e-05  0:00:15  488
  3932  1.4151e-03  2.7122e-04  1.3216e-04  1.3730e-03  2.3858e-04  9.1583e-05  0:01:49  487
  3933  1.4208e-03  2.7387e-04  1.3220e-04  1.3790e-03  2.3971e-04  9.1549e-05  0:01:27  486
  3934  1.4274e-03  2.7679e-04  1.3227e-04  1.3859e-03  2.4084e-04  9.1498e-05  0:01:10  485
  3935  1.4347e-03  2.7693e-04  1.3278e-04  1.3935e-03  2.4194e-04  9.1439e-05  0:00:56  484
  3936  1.4426e-03  2.7548e-04  1.3278e-04  1.4018e-03  2.4304e-04  9.1338e-05  0:00:44  483

  iter  continuity  x-velocity  y-velocity      energy           k       omega     time/iter
  3937  1.4512e-03  2.7669e-04  1.3202e-04  1.4107e-03  2.4416e-04  9.1209e-05  0:00:35  482
  3938  1.4600e-03  2.7308e-04  1.3018e-04  1.4199e-03  2.4525e-04  9.1039e-05  0:00:28  481
  3939  1.4692e-03  2.7033e-04  1.2886e-04  1.4295e-03  2.4635e-04  9.0828e-05  0:00:23  480
  3940  1.4790e-03  2.7023e-04  1.2805e-04  1.4397e-03  2.4744e-04  9.0583e-05  0:00:18  479
  3941  1.4899e-03  2.7307e-04  1.2732e-04  1.4509e-03  2.4854e-04  9.0311e-05  0:00:14  478
  3942  1.5007e-03  2.7619e-04  1.2736e-04  1.4621e-03  2.4963e-04  9.0035e-05  0:01:47  477
  3943  1.5124e-03  2.8317e-04  1.2734e-04  1.4741e-03  2.5075e-04  8.9765e-05  0:01:25  476
  3944  1.5237e-03  2.8490e-04  1.2715e-04  1.4859e-03  2.5183e-04  8.9479e-05  0:01:08  475
  3945  1.5355e-03  2.8132e-04  1.2663e-04  1.4981e-03  2.5282e-04  8.9199e-05  0:00:54  474
  3946  1.5479e-03  2.8111e-04  1.2592e-04  1.5109e-03  2.5377e-04  8.8914e-05  0:00:43  473
  3947  1.5609e-03  2.8638e-04  1.2539e-04  1.5242e-03  2.5469e-04  8.8628e-05  0:00:35  472

  iter  continuity  x-velocity  y-velocity      energy           k       omega     time/iter
  3948  1.5741e-03  2.9164e-04  1.2505e-04  1.5378e-03  2.5558e-04  8.8336e-05  0:00:28  471
  3949  1.5873e-03  2.9214e-04  1.2533e-04  1.5513e-03  2.5648e-04  8.8063e-05  0:00:22  470
  3950  1.6007e-03  2.9031e-04  1.2650e-04  1.5649e-03  2.5739e-04  8.7818e-05  0:00:18  469
  3951  1.6143e-03  2.8826e-04  1.2818e-04  1.5788e-03  2.5826e-04  8.7575e-05  0:00:14  468
  3952  1.6280e-03  2.9192e-04  1.2947e-04  1.5929e-03  2.5904e-04  8.7330e-05  0:01:45  467
  3953  1.6416e-03  2.9301e-04  1.3050e-04  1.6069e-03  2.5975e-04  8.7074e-05  0:01:24  466
  3954  1.6555e-03  2.9313e-04  1.3052e-04  1.6210e-03  2.6043e-04  8.6816e-05  0:01:07  465
  3955  1.6696e-03  2.9825e-04  1.3053e-04  1.6355e-03  2.6102e-04  8.6539e-05  0:00:53  464
  3956  1.6841e-03  3.1038e-04  1.2951e-04  1.6502e-03  2.6155e-04  8.6264e-05  0:00:42  463
  3957  1.6980e-03  3.1118e-04  1.2838e-04  1.6645e-03  2.6203e-04  8.5983e-05  0:00:34  462
  3958  1.7122e-03  3.1642e-04  1.2800e-04  1.6789e-03  2.6249e-04  8.5721e-05  0:00:27  461

  iter  continuity  x-velocity  y-velocity      energy           k       omega     time/iter
  3959  1.7265e-03  3.2308e-04  1.2750e-04  1.6935e-03  2.6291e-04  8.5467e-05  0:00:22  460
  3960  1.7397e-03  3.2246e-04  1.2709e-04  1.7070e-03  2.6331e-04  8.5196e-05  0:00:17  459
  3961  1.7523e-03  3.0987e-04  1.2656e-04  1.7199e-03  2.6370e-04  8.4938e-05  0:00:14  458
  3962  1.7650e-03  2.9826e-04  1.2646e-04  1.7330e-03  2.6403e-04  8.4678e-05  0:00:11  457
  3963  1.7778e-03  2.8952e-04  1.2622e-04  1.7460e-03  2.6427e-04  8.4414e-05  0:01:40  456
  3964  1.7908e-03  2.9054e-04  1.2624e-04  1.7593e-03  2.6449e-04  8.4163e-05  0:01:20  455
  3965  1.8037e-03  2.9167e-04  1.2578e-04  1.7725e-03  2.6467e-04  8.3910e-05  0:01:04  454
  3966  1.8164e-03  2.8898e-04  1.2498e-04  1.7854e-03  2.6483e-04  8.3659e-05  0:00:51  453
  3967  1.8291e-03  2.8910e-04  1.2459e-04  1.7982e-03  2.6493e-04  8.3354e-05  0:00:41  452
  3968  1.8414e-03  2.9027e-04  1.2479e-04  1.8107e-03  2.6495e-04  8.3028e-05  0:00:32  451
  3969  1.8536e-03  2.9273e-04  1.2499e-04  1.8231e-03  2.6482e-04  8.2696e-05  0:00:26  450

  iter  continuity  x-velocity  y-velocity      energy           k       omega     time/iter
  3970  1.8653e-03  2.8830e-04  1.2392e-04  1.8350e-03  2.6457e-04  8.2382e-05  0:00:21  449
  3971  1.8770e-03  2.8552e-04  1.2263e-04  1.8468e-03  2.6428e-04  8.2098e-05  0:00:16  448
  3972  1.8885e-03  2.8533e-04  1.2117e-04  1.8585e-03  2.6389e-04  8.1838e-05  0:00:13  447
  3973  1.9000e-03  2.8438e-04  1.1924e-04  1.8701e-03  2.6345e-04  8.1627e-05  0:01:40  446
  3974  1.9113e-03  2.8493e-04  1.1709e-04  1.8815e-03  2.6292e-04  8.1375e-05  0:01:20  445
  3975  1.9220e-03  2.8474e-04  1.1574e-04  1.8925e-03  2.6229e-04  8.1100e-05  0:01:04  444
  3976  1.9325e-03  2.8097e-04  1.1461e-04  1.9030e-03  2.6159e-04  8.0787e-05  0:00:51  443
  3977  1.9426e-03  2.7801e-04  1.1358e-04  1.9132e-03  2.6085e-04  8.0480e-05  0:00:40  442
  3978  1.9522e-03  2.7742e-04  1.1292e-04  1.9230e-03  2.6004e-04  8.0161e-05  0:00:32  441
  3979  1.9616e-03  2.8017e-04  1.1235e-04  1.9324e-03  2.5922e-04  7.9854e-05  0:01:54  440
  3980  1.9705e-03  2.8213e-04  1.1160e-04  1.9413e-03  2.5834e-04  7.9540e-05  0:01:31  439

  iter  continuity  x-velocity  y-velocity      energy           k       omega     time/iter
  3981  1.9789e-03  2.8356e-04  1.1086e-04  1.9498e-03  2.5741e-04  7.9232e-05  0:01:12  438
  3982  1.9869e-03  2.8203e-04  1.1055e-04  1.9580e-03  2.5643e-04  7.8905e-05  0:00:58  437
  3983  1.9945e-03  2.7939e-04  1.1030e-04  1.9656e-03  2.5537e-04  7.8590e-05  0:00:46  436
  3984  2.0016e-03  2.7871e-04  1.1009e-04  1.9727e-03  2.5427e-04  7.8251e-05  0:00:37  435
  3985  2.0084e-03  2.7888e-04  1.0986e-04  1.9795e-03  2.5314e-04  7.7940e-05  0:00:29  434
  3986  2.0150e-03  2.8315e-04  1.0984e-04  1.9862e-03  2.5199e-04  7.7661e-05  0:00:23  433
  3987  2.0209e-03  2.8651e-04  1.1003e-04  1.9921e-03  2.5080e-04  7.7411e-05  0:00:19  432
  3988  2.0264e-03  2.8586e-04  1.1033e-04  1.9976e-03  2.4956e-04  7.7188e-05  0:00:15  431
  3989  2.0313e-03  2.8747e-04  1.1073e-04  2.0026e-03  2.4823e-04  7.6969e-05  0:01:38  430
  3990  2.0357e-03  2.8719e-04  1.1090e-04  2.0070e-03  2.4685e-04  7.6755e-05  0:01:18  429
  3991  2.0395e-03  2.8774e-04  1.1018e-04  2.0109e-03  2.4542e-04  7.6550e-05  0:01:02  428

  iter  continuity  x-velocity  y-velocity      energy           k       omega     time/iter
  3992  2.0429e-03  2.8655e-04  1.0947e-04  2.0142e-03  2.4392e-04  7.6346e-05  0:00:50  427
  3993  2.0458e-03  2.8716e-04  1.0919e-04  2.0171e-03  2.4242e-04  7.6116e-05  0:00:40  426
  3994  2.0483e-03  2.9206e-04  1.0965e-04  2.0197e-03  2.4089e-04  7.5879e-05  0:00:32  425
  3995  2.0503e-03  2.9927e-04  1.1042e-04  2.0216e-03  2.3927e-04  7.5622e-05  0:00:25  424
  3996  2.0517e-03  3.0112e-04  1.1018e-04  2.0231e-03  2.3758e-04  7.5371e-05  0:00:20  423
  3997  2.0526e-03  2.9750e-04  1.0949e-04  2.0241e-03  2.3581e-04  7.5097e-05  0:00:16  422
  3998  2.0531e-03  2.9163e-04  1.0859e-04  2.0246e-03  2.3396e-04  7.4784e-05  0:00:13  421
  3999  2.0533e-03  2.8923e-04  1.0790e-04  2.0248e-03  2.3209e-04  7.4496e-05  0:01:34  420
  4000  2.0528e-03  2.8939e-04  1.0713e-04  2.0243e-03  2.3020e-04  7.4235e-05  0:01:15  419
  4001  2.0519e-03  2.9049e-04  1.0568e-04  2.0234e-03  2.2828e-04  7.4004e-05  0:01:00  418
  4002  2.0507e-03  2.9034e-04  1.0457e-04  2.0222e-03  2.2636e-04  7.3804e-05  0:00:48  417

  iter  continuity  x-velocity  y-velocity      energy           k       omega     time/iter
  4003  2.0489e-03  2.8670e-04  1.0383e-04  2.0205e-03  2.2441e-04  7.3644e-05  0:00:38  416
  4004  2.0466e-03  2.8610e-04  1.0283e-04  2.0183e-03  2.2246e-04  7.3501e-05  0:00:31  415
  4005  2.0441e-03  2.8612e-04  1.0166e-04  2.0158e-03  2.2046e-04  7.3351e-05  0:00:24  414
  4006  2.0410e-03  2.8049e-04  1.0016e-04  2.0128e-03  2.1841e-04  7.3184e-05  0:00:19  413
  4007  2.0376e-03  2.8033e-04  9.8633e-05  2.0094e-03  2.1635e-04  7.3032e-05  0:00:16  412
  4008  2.0340e-03  2.8062e-04  9.7480e-05  2.0058e-03  2.1424e-04  7.2897e-05  0:00:12  411
  4009  2.0301e-03  2.7916e-04  9.6830e-05  2.0019e-03  2.1211e-04  7.2784e-05  0:01:32  410
  4010  2.0258e-03  2.7707e-04  9.6500e-05  1.9977e-03  2.0997e-04  7.2697e-05  0:01:13  409
  4011  2.0214e-03  2.7755e-04  9.5966e-05  1.9933e-03  2.0782e-04  7.2613e-05  0:00:59  408
  4012  2.0166e-03  2.7748e-04  9.5447e-05  1.9886e-03  2.0565e-04  7.2519e-05  0:00:47  407
  4013  2.0116e-03  2.7635e-04  9.5120e-05  1.9836e-03  2.0347e-04  7.2433e-05  0:00:37  406

  iter  continuity  x-velocity  y-velocity      energy           k       omega     time/iter
  4014  2.0064e-03  2.7828e-04  9.5585e-05  1.9785e-03  2.0124e-04  7.2374e-05  0:00:30  405
  4015  2.0010e-03  2.8289e-04  9.6813e-05  1.9731e-03  1.9896e-04  7.2298e-05  0:00:24  404
  4016  1.9952e-03  2.8132e-04  9.6349e-05  1.9673e-03  1.9663e-04  7.2226e-05  0:00:19  403
  4017  1.9889e-03  2.7540e-04  9.4430e-05  1.9610e-03  1.9428e-04  7.2159e-05  0:00:15  402
  4018  1.9824e-03  2.7465e-04  9.2890e-05  1.9545e-03  1.9193e-04  7.2081e-05  0:00:12  401
  4019  1.9758e-03  2.7627e-04  9.2190e-05  1.9479e-03  1.8960e-04  7.2022e-05  0:01:30  400
  4020  1.9689e-03  2.8084e-04  9.3442e-05  1.9410e-03  1.8728e-04  7.1966e-05  0:01:12  399
  4021  1.9617e-03  2.8315e-04  9.5878e-05  1.9337e-03  1.8497e-04  7.1894e-05  0:00:57  398
  4022  1.9538e-03  2.8299e-04  9.8449e-05  1.9259e-03  1.8268e-04  7.1873e-05  0:00:46  397
  4023  1.9457e-03  2.8370e-04  9.9963e-05  1.9177e-03  1.8042e-04  7.1871e-05  0:00:36  396
  4024  1.9370e-03  2.8045e-04  1.0161e-04  1.9090e-03  1.7817e-04  7.1860e-05  0:00:29  395

  iter  continuity  x-velocity  y-velocity      energy           k       omega     time/iter
  4025  1.9282e-03  2.8629e-04  1.0163e-04  1.9002e-03  1.7589e-04  7.1823e-05  0:00:23  394
  4026  1.9189e-03  2.8710e-04  1.0103e-04  1.8911e-03  1.7360e-04  7.1798e-05  0:00:18  393
  4027  1.9092e-03  2.8505e-04  1.0011e-04  1.8814e-03  1.7129e-04  7.1750e-05  0:00:15  392
  4028  1.8990e-03  2.8299e-04  9.9293e-05  1.8712e-03  1.6894e-04  7.1692e-05  0:00:12  391
  4029  1.8883e-03  2.8338e-04  9.7601e-05  1.8606e-03  1.6658e-04  7.1618e-05  0:01:27  390
  4030  1.8770e-03  2.8355e-04  9.4654e-05  1.8494e-03  1.6419e-04  7.1532e-05  0:01:10  389
  4031  1.8655e-03  2.8492e-04  9.3248e-05  1.8380e-03  1.6182e-04  7.1426e-05  0:00:56  388
  4032  1.8533e-03  2.8269e-04  9.1732e-05  1.8260e-03  1.5950e-04  7.1338e-05  0:00:44  387
  4033  1.8406e-03  2.7266e-04  9.0015e-05  1.8133e-03  1.5721e-04  7.1256e-05  0:00:35  386
  4034  1.8274e-03  2.6320e-04  8.7946e-05  1.8002e-03  1.5494e-04  7.1174e-05  0:00:28  385
  4035  1.8141e-03  2.6078e-04  8.5666e-05  1.7870e-03  1.5270e-04  7.1114e-05  0:00:23  384

  iter  continuity  x-velocity  y-velocity      energy           k       omega     time/iter
  4036  1.8005e-03  2.6200e-04  8.4471e-05  1.7735e-03  1.5047e-04  7.1045e-05  0:00:18  383
  4037  1.7866e-03  2.6309e-04  8.2799e-05  1.7597e-03  1.4828e-04  7.0973e-05  0:00:14  382
  4038  1.7722e-03  2.5739e-04  8.1233e-05  1.7453e-03  1.4613e-04  7.0906e-05  0:00:11  381
  4039  1.7575e-03  2.5387e-04  7.9852e-05  1.7306e-03  1.4401e-04  7.0845e-05  0:01:25  380
  4040  1.7425e-03  2.5065e-04  7.8986e-05  1.7156e-03  1.4197e-04  7.0786e-05  0:01:08  379
  4041  1.7273e-03  2.4852e-04  7.8631e-05  1.7005e-03  1.4006e-04  7.0739e-05  0:00:54  378
  4042  1.7116e-03  2.4583e-04  8.0046e-05  1.6848e-03  1.3823e-04  7.0682e-05  0:00:43  377
  4043  1.6957e-03  2.4457e-04  8.1454e-05  1.6690e-03  1.3650e-04  7.0638e-05  0:00:35  376
  4044  1.6797e-03  2.4535e-04  8.2788e-05  1.6530e-03  1.3487e-04  7.0599e-05  0:00:28  375
  4045  1.6635e-03  2.4500e-04  8.3933e-05  1.6369e-03  1.3332e-04  7.0552e-05  0:00:22  374
  4046  1.6472e-03  2.4835e-04  8.4920e-05  1.6207e-03  1.3179e-04  7.0478e-05  0:00:18  373

  iter  continuity  x-velocity  y-velocity      energy           k       omega     time/iter
  4047  1.6308e-03  2.4915e-04  8.4893e-05  1.6044e-03  1.3031e-04  7.0400e-05  0:00:14  372
  4048  1.6143e-03  2.4883e-04  8.3624e-05  1.5880e-03  1.2891e-04  7.0324e-05  0:00:11  371
  4049  1.5978e-03  2.5067e-04  8.2437e-05  1.5717e-03  1.2758e-04  7.0234e-05  0:01:23  370
  4050  1.5814e-03  2.5348e-04  8.1405e-05  1.5554e-03  1.2632e-04  7.0175e-05  0:01:06  369
  4051  1.5652e-03  2.5800e-04  8.1002e-05  1.5392e-03  1.2519e-04  7.0089e-05  0:00:53  368
  4052  1.5491e-03  2.6273e-04  8.1050e-05  1.5233e-03  1.2412e-04  7.0037e-05  0:00:42  367
  4053  1.5328e-03  2.5555e-04  8.1450e-05  1.5071e-03  1.2309e-04  6.9990e-05  0:00:34  366
  4054  1.5170e-03  2.5874e-04  8.1480e-05  1.4914e-03  1.2211e-04  6.9962e-05  0:00:27  365
  4055  1.5016e-03  2.6004e-04  8.0692e-05  1.4761e-03  1.2119e-04  6.9966e-05  0:00:21  364
  4056  1.4864e-03  2.6260e-04  8.0176e-05  1.4610e-03  1.2037e-04  6.9967e-05  0:00:17  363
  4057  1.4715e-03  2.6579e-04  8.0428e-05  1.4461e-03  1.1960e-04  6.9954e-05  0:00:14  362

  iter  continuity  x-velocity  y-velocity      energy           k       omega     time/iter
  4058  1.4568e-03  2.7091e-04  8.1295e-05  1.4315e-03  1.1890e-04  6.9941e-05  0:00:11  361
  4059  1.4421e-03  2.7685e-04  8.1253e-05  1.4169e-03  1.1826e-04  6.9905e-05  0:01:21  360
  4060  1.4277e-03  2.8379e-04  8.1253e-05  1.4026e-03  1.1769e-04  6.9888e-05  0:01:04  359
  4061  1.4131e-03  2.8360e-04  8.1365e-05  1.3881e-03  1.1720e-04  6.9856e-05  0:00:51  358
  4062  1.3988e-03  2.8472e-04  8.1833e-05  1.3739e-03  1.1679e-04  6.9818e-05  0:00:41  357
  4063  1.3844e-03  2.8538e-04  8.2145e-05  1.3595e-03  1.1645e-04  6.9737e-05  0:00:33  356
  4064  1.3697e-03  2.7838e-04  8.1904e-05  1.3450e-03  1.1620e-04  6.9652e-05  0:00:26  355
  4065  1.3554e-03  2.7891e-04  8.0976e-05  1.3308e-03  1.1602e-04  6.9572e-05  0:00:21  354
  4066  1.3415e-03  2.8412e-04  8.0580e-05  1.3170e-03  1.1591e-04  6.9492e-05  0:00:17  353
  4067  1.3276e-03  2.8724e-04  8.1026e-05  1.3030e-03  1.1590e-04  6.9404e-05  0:00:13  352
  4068  1.3135e-03  2.8725e-04  8.1702e-05  1.2890e-03  1.1596e-04  6.9345e-05  0:00:11  351

  iter  continuity  x-velocity  y-velocity      energy           k       omega     time/iter
  4069  1.2991e-03  2.8249e-04  8.1822e-05  1.2747e-03  1.1614e-04  6.9303e-05  0:00:08  350
  4070  1.2855e-03  2.8576e-04  8.2220e-05  1.2610e-03  1.1641e-04  6.9257e-05  0:01:17  349
  4071  1.2713e-03  2.8029e-04  8.2524e-05  1.2468e-03  1.1676e-04  6.9209e-05  0:01:01  348
  4072  1.2571e-03  2.7022e-04  8.3039e-05  1.2327e-03  1.1716e-04  6.9175e-05  0:00:49  347
  4073  1.2428e-03  2.5824e-04  8.3139e-05  1.2185e-03  1.1762e-04  6.9123e-05  0:00:39  346
  4074  1.2290e-03  2.5155e-04  8.2691e-05  1.2047e-03  1.1816e-04  6.9042e-05  0:00:31  345
  4075  1.2157e-03  2.5116e-04  8.1622e-05  1.1915e-03  1.1873e-04  6.8969e-05  0:00:25  344
  4076  1.2030e-03  2.5667e-04  8.0216e-05  1.1789e-03  1.1935e-04  6.8885e-05  0:00:20  343
  4077  1.1909e-03  2.6700e-04  7.9462e-05  1.1667e-03  1.2005e-04  6.8788e-05  0:00:16  342
  4078  1.1786e-03  2.7020e-04  7.9532e-05  1.1544e-03  1.2081e-04  6.8675e-05  0:00:13  341
  4079  1.1663e-03  2.7304e-04  8.0138e-05  1.1422e-03  1.2159e-04  6.8532e-05  0:00:10  340

  iter  continuity  x-velocity  y-velocity      energy           k       omega     time/iter
  4080  1.1538e-03  2.6382e-04  8.0443e-05  1.1295e-03  1.2240e-04  6.8364e-05  0:01:16  339
  4081  1.1416e-03  2.6289e-04  8.0969e-05  1.1174e-03  1.2322e-04  6.8194e-05  0:01:00  338
  4082  1.1295e-03  2.6377e-04  8.1626e-05  1.1053e-03  1.2405e-04  6.8027e-05  0:00:48  337
  4083  1.1176e-03  2.6132e-04  8.1903e-05  1.0934e-03  1.2486e-04  6.7837e-05  0:00:38  336
  4084  1.1060e-03  2.5970e-04  8.1974e-05  1.0819e-03  1.2565e-04  6.7659e-05  0:00:31  335
  4085  1.0942e-03  2.5745e-04  8.1699e-05  1.0702e-03  1.2643e-04  6.7495e-05  0:00:24  334
  4086  1.0827e-03  2.5554e-04  8.1521e-05  1.0589e-03  1.2719e-04  6.7333e-05  0:00:20  333
  4087  1.0717e-03  2.5566e-04  8.1874e-05  1.0480e-03  1.2791e-04  6.7179e-05  0:00:16  332
  4088  1.0614e-03  2.5968e-04  8.3517e-05  1.0378e-03  1.2858e-04  6.7015e-05  0:00:12  331
  4089  1.0509e-03  2.5560e-04  8.4099e-05  1.0274e-03  1.2923e-04  6.6851e-05  0:00:10  330
  4090  1.0409e-03  2.5766e-04  8.4737e-05  1.0175e-03  1.2983e-04  6.6699e-05  0:01:14  329

  iter  continuity  x-velocity  y-velocity      energy           k       omega     time/iter
  4091  1.0317e-03  2.6645e-04  8.5090e-05  1.0083e-03  1.3039e-04  6.6563e-05  0:00:59  328
  4092  1.0225e-03  2.7273e-04  8.4972e-05  9.9912e-04  1.3091e-04  6.6432e-05  0:00:47  327
  4093  1.0133e-03  2.7507e-04  8.4704e-05  9.8999e-04  1.3141e-04  6.6302e-05  0:00:37  326
  4094  1.0042e-03  2.7605e-04  8.4425e-05  9.8088e-04  1.3188e-04  6.6168e-05  0:00:30  325
  4095  9.9537e-04  2.7999e-04  8.4652e-05  9.7216e-04  1.3234e-04  6.6034e-05  0:00:24  324
! 4095 solution is converged

> /plot/plot yes loading.txt yes yes no no absolute-pressure yes 1 0 upper-blade ()

> ;exit yes

> (cx-gui-do cx-set-list-tree-selections "NavigationPane*List_Tree1" (list "Results|Graphics|Contours"))
(cx-gui-do cx-set-list-tree-selections "NavigationPane*List_Tree1" (list "Results|Graphics|Contours"))
(cx-gui-do cx-activate-item "NavigationPane*List_Tree1")
(cx-gui-do cx-set-list-tree-selections "NavigationPane*List_Tree1" (list "Results|Graphics|Contours"))
(cx-gui-do cx-activate-item "Contours*PanelButtons*PushButton1(OK)")
Creating zone surface for fluid-9 zone
(cx-gui-do cx-activate-item "Contours*PanelButtons*PushButton2(Cancel)")
/exit y

Posting ANSYS Product Improvement Program performance data 
Done.
(cx-gui-do cx-activate-item "Question*OK")
