
              Welcome to ANSYS Fluent 2021 R2

              Copyright 1987-2021 ANSYS, Inc. All Rights Reserved.
              Unauthorized use, distribution or duplication is prohibited.
              This product is subject to U.S. laws governing export and re-export.
              For full Legal Notice, see documentation.

Build Time: May 28 2021 13:54:56 EDT  Build Id: 10201  
 

     --------------------------------------------------------------
     This is an academic version of ANSYS FLUENT. Usage of this product
     license is limited to the terms and conditions specified in your ANSYS
     license form, additional terms section.
     --------------------------------------------------------------
Host spawning Node 0 on machine "WL-CH-009" (win64).

-------------------------------------------------------------------------------
ID    Hostname   Core   O.S.         PID    Vendor                       
-------------------------------------------------------------------------------
n31   WL-CH-009  32/36  Windows-x64  39744  Intel(R) Xeon(R) W-2295      
n30   WL-CH-009  31/36  Windows-x64  12132  Intel(R) Xeon(R) W-2295      
n29   WL-CH-009  30/36  Windows-x64  20400  Intel(R) Xeon(R) W-2295      
n28   WL-CH-009  29/36  Windows-x64  14192  Intel(R) Xeon(R) W-2295      
n27   WL-CH-009  28/36  Windows-x64  16460  Intel(R) Xeon(R) W-2295      
n26   WL-CH-009  27/36  Windows-x64  30852  Intel(R) Xeon(R) W-2295      
n25   WL-CH-009  26/36  Windows-x64  17640  Intel(R) Xeon(R) W-2295      
n24   WL-CH-009  25/36  Windows-x64  35912  Intel(R) Xeon(R) W-2295      
n23   WL-CH-009  24/36  Windows-x64  40232  Intel(R) Xeon(R) W-2295      
n22   WL-CH-009  23/36  Windows-x64  34448  Intel(R) Xeon(R) W-2295      
n21   WL-CH-009  22/36  Windows-x64  34948  Intel(R) Xeon(R) W-2295      
n20   WL-CH-009  21/36  Windows-x64  36788  Intel(R) Xeon(R) W-2295      
n19   WL-CH-009  20/36  Windows-x64  26736  Intel(R) Xeon(R) W-2295      
n18   WL-CH-009  19/36  Windows-x64  45432  Intel(R) Xeon(R) W-2295      
n17   WL-CH-009  18/36  Windows-x64  42636  Intel(R) Xeon(R) W-2295      
n16   WL-CH-009  17/36  Windows-x64  32712  Intel(R) Xeon(R) W-2295      
n15   WL-CH-009  16/36  Windows-x64  42572  Intel(R) Xeon(R) W-2295      
n14   WL-CH-009  15/36  Windows-x64  25968  Intel(R) Xeon(R) W-2295      
n13   WL-CH-009  14/36  Windows-x64  41200  Intel(R) Xeon(R) W-2295      
n12   WL-CH-009  13/36  Windows-x64  39832  Intel(R) Xeon(R) W-2295      
-------------------------------------------------------------------------------
ID    Hostname   Core   O.S.         PID    Vendor                       
-------------------------------------------------------------------------------
n11   WL-CH-009  12/36  Windows-x64  41708  Intel(R) Xeon(R) W-2295      
n10   WL-CH-009  11/36  Windows-x64  19452  Intel(R) Xeon(R) W-2295      
n9    WL-CH-009  10/36  Windows-x64  31700  Intel(R) Xeon(R) W-2295      
n8    WL-CH-009  9/36   Windows-x64  26596  Intel(R) Xeon(R) W-2295      
n7    WL-CH-009  8/36   Windows-x64  33824  Intel(R) Xeon(R) W-2295      
n6    WL-CH-009  7/36   Windows-x64  14848  Intel(R) Xeon(R) W-2295      
n5    WL-CH-009  6/36   Windows-x64  28104  Intel(R) Xeon(R) W-2295      
n4    WL-CH-009  5/36   Windows-x64  28288  Intel(R) Xeon(R) W-2295      
n3    WL-CH-009  4/36   Windows-x64  20764  Intel(R) Xeon(R) W-2295      
n2    WL-CH-009  3/36   Windows-x64  30104  Intel(R) Xeon(R) W-2295      
n1    WL-CH-009  2/36   Windows-x64  44472  Intel(R) Xeon(R) W-2295      
n0*   WL-CH-009  1/36   Windows-x64  35960  Intel(R) Xeon(R) W-2295      
host  WL-CH-009         Windows-x64  14188  Intel(R) Xeon(R) W-2295      

MPI Option Selected: intel
Selected system interconnect: default
-------------------------------------------------------------------------------

Cleanup script file is E:\\MATLAB\\RANS_optimisation\\cleanup-fluent-WL-CH-009-14188.bat

Posting ANSYS Product Improvement Program startup data
Done.

Reading journal file E:\MATLAB\RANS_optimisation\run12\fluent_input.jou...

> /sync-chdir E:\MATLAB\RANS_optimisation\run12

> /file/read-case "grid.msh"
Reading "grid.msh"...

Buffering for file scan...

  112722 quadrilateral cells, zone  9.
  224998 2D interior faces, zone  2.
Warning: Reversing 238 faces, zone  2.
     237 2D pressure-inlet faces, zone  3.
Warning: Reversing 237 faces, zone  3.
     477 2D pressure-outlet faces, zone  4.
Warning: Reversing 477 faces, zone  4.
     477 2D pressure-outlet faces, zone  5.
     207 2D pressure-outlet faces, zone  6.
     254 2D wall faces, zone  7.
Warning: Reversing 15 faces, zone  7.
     252 2D wall faces, zone  8.
Warning: Reversing 223 faces, zone  8.
  113674 nodes.

Building...
     mesh
	auto partitioning mesh by Metis (fast),
	distributing mesh
		parts................................,
		faces................................,
		nodes................................,
		cells................................,
        bandwidth reduction using Reverse Cuthill-McKee: 2716/83 = 32.7229
     materials,
     interface,
     domains,
     zones,
	fluid-9
	wall-8
	wall-7
	pressure-outlet-6
	pressure-outlet-5
	pressure-outlet-4
	pressure-inlet-3
	interior-2
     parallel,
Done.

Preparing mesh for display...
Done.
 

> /define/boundary-conditions/modify-zones/zone-name 3 inlet 

> /define/boundary-conditions/modify-zones/zone-name 4 upper 

> /define/boundary-conditions/modify-zones/zone-name 5 lower 

> /define/boundary-conditions/modify-zones/zone-name 6 outlet

> /define/boundary-conditions/modify-zones/zone-name 7 upper-blade

> /define/boundary-conditions/modify-zones/zone-name 8 lower-blade

> /define/materials/change-create air air air is a fluid
yes 
Density
ideal-gas no data required.

yes 
Cp (Specific Heat)
constant 1005 
yes 
Thermal Conductivity
expression "DynamicViscosity*1005 [J/(kg K)]/0.72"
 yes 
Viscosity
sutherland three-coefficient-method 5.83247e-04 273 110.4 
no no no

Note: Enabling energy equation as required by material density method.

> /define/operating-conditions/operating-pressure 0

> /define/models/viscous/kw-sst? yes

> /define/boundary-conditions/zone-type inlet pressure-inlet 

> /define/boundary-conditions/pressure-inlet (inlet)
inlet yes no 74575.2 no 46984 no 300 no yes no no yes 0.5 1

> /define/boundary-conditions/zone-type outlet pressure-outlet 

> /define/boundary-conditions/bc-settings/pressure-outlet 0. 65 

> /define/boundary-conditions/pressure-outlet (outlet upper lower)
outlet yes no 46984 no 300 no yes no no yes 0.5 1 yes no no

> /define/boundary-conditions/copy-bc outlet (upper lower)Copy outlet boundary conditions to lower
Copy outlet boundary conditions to upper


> /define/boundary-conditions/wall (upper-blade lower-blade)
upper-blade 0 no 0 no no no 0 no no no no 0 no 0.5 no 1

> /define/boundary-conditions/copy-bc upper-blade (lower-blade)Copy upper-blade boundary conditions to lower-blade


> /define/models/solver/densit-based-implicit yes

> /file/read-data E:\MATLAB\RANS_optimisation\clean.dat

Reading "E:\MATLAB\RANS_optimisation\clean.dat"...



Parallel variables...
Done.

> ;/solve/initialize/initialize-flow
;/solve/initialize/compute-defaults/pressure-inlet inlet
;/solve/initialize/initialize-flow yes
;/solve/initialize/hyb-initialization
/solve/iterate 2000

  iter  continuity  x-velocity  y-velocity      energy           k       omega     time/iter
  2419  9.9521e-04  3.5719e-04  6.8654e-05  9.7828e-04  1.7105e-04  4.2984e-05  0:00:00 2000
  2420  9.5011e-02  6.7327e-02  5.5193e-02  9.5011e-02  4.0891e-03  1.2299e-02  0:00:00 1999
  2421  8.8328e-02  5.0884e-02  6.0994e-02  8.9509e-02  3.9005e-03  1.0368e-02  0:33:18 1998
  2422  6.4913e-02  3.5056e-02  5.7021e-02  6.5861e-02  3.6995e-03  8.0042e-03  0:26:38 1997
  2423  4.7952e-02  2.5883e-02  5.2538e-02  4.7844e-02  3.4965e-03  6.5983e-03  0:21:17 1996
  2424  3.7541e-02  2.1886e-02  4.3064e-02  3.6914e-02  3.2978e-03  6.0967e-03  0:17:01 1995
  2425  3.0896e-02  1.9620e-02  3.3778e-02  3.0170e-02  3.1091e-03  5.6783e-03  0:13:37 1994
  2426  2.6834e-02  1.8071e-02  2.6423e-02  2.6241e-02  2.9350e-03  5.2654e-03  0:10:53 1993
  2427  2.4620e-02  1.6756e-02  2.1081e-02  2.4188e-02  2.7787e-03  4.8460e-03  0:08:42 1992
  2428  2.3447e-02  1.5490e-02  1.7452e-02  2.3138e-02  2.6438e-03  4.4447e-03  0:06:58 1991
  2429  2.2610e-02  1.4251e-02  1.5088e-02  2.2383e-02  2.5287e-03  3.9815e-03  0:05:34 1990

  iter  continuity  x-velocity  y-velocity      energy           k       omega     time/iter
  2430  2.1743e-02  1.3087e-02  1.3458e-02  2.1567e-02  2.4314e-03  3.5236e-03  0:04:27 1989
  2431  2.0741e-02  1.1957e-02  1.2335e-02  2.0586e-02  2.3474e-03  3.1275e-03  0:03:33 1988
  2432  1.9623e-02  1.0833e-02  1.1505e-02  1.9465e-02  2.2766e-03  2.8374e-03  0:09:28 1987
  2433  1.8442e-02  9.7546e-03  1.0826e-02  1.8261e-02  2.2138e-03  2.6183e-03  0:07:34 1986
  2434  1.7292e-02  8.7431e-03  1.0212e-02  1.7075e-02  2.1543e-03  2.4303e-03  0:06:03 1985
  2435  1.6255e-02  7.8757e-03  9.6308e-03  1.5992e-02  2.0982e-03  2.2848e-03  0:04:50 1984
  2436  1.5396e-02  7.2176e-03  9.0706e-03  1.5080e-02  2.0429e-03  2.1984e-03  0:03:52 1983
  2437  1.4729e-02  6.8211e-03  8.5104e-03  1.4361e-02  1.9886e-03  2.1611e-03  0:03:06 1982
  2438  1.4222e-02  6.6931e-03  7.9837e-03  1.3808e-02  1.9357e-03  2.1625e-03  0:02:28 1981
  2439  1.3818e-02  6.8007e-03  7.4617e-03  1.3367e-02  1.8841e-03  2.1944e-03  0:01:59 1980
  2440  1.3507e-02  7.0593e-03  6.9932e-03  1.3028e-02  1.8346e-03  2.2269e-03  0:01:35 1979

  iter  continuity  x-velocity  y-velocity      energy           k       omega     time/iter
  2441  1.3272e-02  7.3773e-03  6.5824e-03  1.2773e-02  1.7896e-03  2.2509e-03  0:01:16 1978
  2442  1.3128e-02  7.7255e-03  6.2044e-03  1.2616e-02  1.7514e-03  2.2766e-03  0:07:36 1977
  2443  1.3088e-02  8.0662e-03  5.8782e-03  1.2567e-02  1.7202e-03  2.2995e-03  0:06:05 1976
  2444  1.3171e-02  8.3405e-03  5.6396e-03  1.2643e-02  1.6948e-03  2.3116e-03  0:04:52 1975
  2445  1.3406e-02  8.5386e-03  5.4679e-03  1.2876e-02  1.6762e-03  2.3283e-03  0:03:53 1974
  2446  1.3809e-02  8.6621e-03  5.3324e-03  1.3281e-02  1.6624e-03  2.3472e-03  0:03:06 1973
  2447  1.4376e-02  8.7104e-03  5.2268e-03  1.3858e-02  1.6531e-03  2.3643e-03  0:02:29 1972
  2448  1.5092e-02  8.6981e-03  5.1287e-03  1.4588e-02  1.6488e-03  2.3594e-03  0:01:59 1971
  2449  1.5936e-02  8.6306e-03  5.0423e-03  1.5445e-02  1.6490e-03  2.3454e-03  0:01:35 1970
  2450  1.6866e-02  8.5333e-03  4.9518e-03  1.6390e-02  1.6503e-03  2.3090e-03  0:01:16 1969
  2451  1.7823e-02  8.3996e-03  4.8550e-03  1.7363e-02  1.6535e-03  2.2660e-03  0:01:01 1968

  iter  continuity  x-velocity  y-velocity      energy           k       omega     time/iter
  2452  1.8768e-02  8.2515e-03  4.7335e-03  1.8325e-02  1.6583e-03  2.2177e-03  0:07:22 1967
  2453  1.9642e-02  8.0951e-03  4.6091e-03  1.9216e-02  1.6643e-03  2.1742e-03  0:05:54 1966
  2454  2.0431e-02  7.9472e-03  4.4673e-03  2.0023e-02  1.6701e-03  2.1365e-03  0:04:43 1965
  2455  2.1155e-02  7.8171e-03  4.3179e-03  2.0764e-02  1.6768e-03  2.0967e-03  0:03:46 1964
  2456  2.1789e-02  7.6985e-03  4.1577e-03  2.1417e-02  1.6848e-03  2.0575e-03  0:03:01 1963
  2457  2.2318e-02  7.6107e-03  3.9846e-03  2.1966e-02  1.6916e-03  2.0163e-03  0:02:25 1962
  2458  2.2702e-02  7.5467e-03  3.8145e-03  2.2369e-02  1.6980e-03  1.9879e-03  0:01:56 1961
  2459  2.2924e-02  7.5107e-03  3.6733e-03  2.2609e-02  1.7070e-03  1.9617e-03  0:01:32 1960
  2460  2.2986e-02  7.4933e-03  3.4951e-03  2.2688e-02  1.7187e-03  1.9421e-03  0:01:14 1959
  2461  2.2884e-02  7.4952e-03  3.3682e-03  2.2599e-02  1.7287e-03  1.9294e-03  0:00:59 1958
  2462  2.2661e-02  7.4990e-03  3.3055e-03  2.2390e-02  1.7375e-03  1.9149e-03  0:07:19 1957

  iter  continuity  x-velocity  y-velocity      energy           k       omega     time/iter
  2463  2.2353e-02  7.5050e-03  3.2647e-03  2.2095e-02  1.7503e-03  1.9010e-03  0:05:51 1956
  2464  2.1976e-02  7.5140e-03  3.2350e-03  2.1730e-02  1.7590e-03  1.8924e-03  0:04:40 1955
  2465  2.1538e-02  7.5175e-03  3.1933e-03  2.1300e-02  1.7715e-03  1.8772e-03  0:03:44 1954
  2466  2.1007e-02  7.5016e-03  3.1789e-03  2.0777e-02  1.7795e-03  1.8620e-03  0:02:59 1953
  2467  2.0390e-02  7.4734e-03  3.1574e-03  2.0163e-02  1.7904e-03  1.8552e-03  0:02:23 1952
  2468  1.9707e-02  7.4324e-03  3.1803e-03  1.9483e-02  1.7976e-03  1.8468e-03  0:01:55 1951
  2469  1.8973e-02  7.3601e-03  3.2215e-03  1.8750e-02  1.8029e-03  1.8395e-03  0:01:32 1950
  2470  1.8213e-02  7.2696e-03  3.2451e-03  1.7991e-02  1.8100e-03  1.8269e-03  0:01:13 1949
  2471  1.7432e-02  7.1660e-03  3.2705e-03  1.7214e-02  1.8137e-03  1.8175e-03  0:00:59 1948
  2472  1.6652e-02  7.0601e-03  3.2889e-03  1.6435e-02  1.8185e-03  1.8131e-03  0:07:16 1947
  2473  1.5878e-02  6.9461e-03  3.3015e-03  1.5663e-02  1.8198e-03  1.8039e-03  0:05:49 1946

  iter  continuity  x-velocity  y-velocity      energy           k       omega     time/iter
  2474  1.5102e-02  6.8260e-03  3.2745e-03  1.4890e-02  1.8219e-03  1.7798e-03  0:04:39 1945
  2475  1.4304e-02  6.7057e-03  3.2615e-03  1.4089e-02  1.8196e-03  1.7565e-03  0:03:43 1944
  2476  1.3527e-02  6.5709e-03  3.2613e-03  1.3307e-02  1.8176e-03  1.7374e-03  0:02:58 1943
  2477  1.2798e-02  6.4202e-03  3.2970e-03  1.2575e-02  1.8173e-03  1.7202e-03  0:02:23 1942
  2478  1.2147e-02  6.2804e-03  3.2928e-03  1.1922e-02  1.8132e-03  1.7056e-03  0:01:54 1941
  2479  1.1559e-02  6.1467e-03  3.2842e-03  1.1335e-02  1.8108e-03  1.6918e-03  0:01:31 1940
  2480  1.1034e-02  6.0185e-03  3.2766e-03  1.0814e-02  1.8071e-03  1.6762e-03  0:01:13 1939
  2481  1.0569e-02  5.8852e-03  3.2514e-03  1.0354e-02  1.8020e-03  1.6581e-03  0:00:58 1938
  2482  1.0158e-02  5.7541e-03  3.2063e-03  9.9496e-03  1.7987e-03  1.6380e-03  0:07:14 1937
  2483  9.8145e-03  5.6236e-03  3.1811e-03  9.6111e-03  1.7921e-03  1.6212e-03  0:05:47 1936
  2484  9.5578e-03  5.4899e-03  3.1666e-03  9.3612e-03  1.7872e-03  1.6055e-03  0:04:37 1935

  iter  continuity  x-velocity  y-velocity      energy           k       omega     time/iter
  2485  9.3808e-03  5.3582e-03  3.1838e-03  9.1934e-03  1.7852e-03  1.5932e-03  0:03:42 1934
  2486  9.2612e-03  5.2416e-03  3.1475e-03  9.0853e-03  1.7843e-03  1.5845e-03  0:02:57 1933
  2487  9.1882e-03  5.1386e-03  3.1126e-03  9.0247e-03  1.7806e-03  1.5757e-03  0:02:22 1932
  2488  9.1771e-03  5.0471e-03  3.0669e-03  9.0289e-03  1.7781e-03  1.5681e-03  0:01:53 1931
  2489  9.1959e-03  4.9549e-03  3.0081e-03  9.0581e-03  1.7804e-03  1.5580e-03  0:01:31 1930
  2490  9.2492e-03  4.8679e-03  2.9577e-03  9.1211e-03  1.7842e-03  1.5433e-03  0:01:13 1929
  2491  9.3282e-03  4.7840e-03  2.9205e-03  9.2067e-03  1.7862e-03  1.5338e-03  0:00:58 1928
  2492  9.4244e-03  4.6948e-03  2.8992e-03  9.3093e-03  1.7876e-03  1.5284e-03  0:00:46 1927
  2493  9.5497e-03  4.6180e-03  2.8597e-03  9.4427e-03  1.7927e-03  1.5294e-03  0:07:02 1926
  2494  9.6928e-03  4.5465e-03  2.8116e-03  9.5939e-03  1.7989e-03  1.5272e-03  0:05:38 1925
  2495  9.8327e-03  4.4781e-03  2.7641e-03  9.7413e-03  1.8064e-03  1.5208e-03  0:04:30 1924

  iter  continuity  x-velocity  y-velocity      energy           k       omega     time/iter
  2496  9.9608e-03  4.4161e-03  2.6953e-03  9.8730e-03  1.8124e-03  1.5154e-03  0:03:36 1923
  2497  1.0092e-02  4.3594e-03  2.6368e-03  1.0006e-02  1.8201e-03  1.5111e-03  0:02:53 1922
  2498  1.0187e-02  4.3050e-03  2.5772e-03  1.0097e-02  1.8278e-03  1.4988e-03  0:02:18 1921
  2499  1.0268e-02  4.2527e-03  2.5390e-03  1.0172e-02  1.8355e-03  1.4909e-03  0:01:50 1920
  2500  1.0353e-02  4.2025e-03  2.4947e-03  1.0255e-02  1.8461e-03  1.4787e-03  0:01:28 1919
  2501  1.0430e-02  4.1626e-03  2.4383e-03  1.0331e-02  1.8558e-03  1.4682e-03  0:01:11 1918
  2502  1.0496e-02  4.1229e-03  2.3839e-03  1.0398e-02  1.8660e-03  1.4633e-03  0:00:56 1917
  2503  1.0555e-02  4.0756e-03  2.3313e-03  1.0458e-02  1.8774e-03  1.4549e-03  0:07:08 1916
  2504  1.0595e-02  4.0350e-03  2.2787e-03  1.0499e-02  1.8871e-03  1.4442e-03  0:05:42 1915
  2505  1.0616e-02  3.9955e-03  2.2322e-03  1.0518e-02  1.8973e-03  1.4355e-03  0:04:34 1914
  2506  1.0631e-02  3.9652e-03  2.1988e-03  1.0535e-02  1.9078e-03  1.4259e-03  0:03:39 1913

  iter  continuity  x-velocity  y-velocity      energy           k       omega     time/iter
  2507  1.0643e-02  3.9440e-03  2.1615e-03  1.0550e-02  1.9193e-03  1.4177e-03  0:02:55 1912
  2508  1.0658e-02  3.9256e-03  2.1272e-03  1.0570e-02  1.9304e-03  1.4063e-03  0:02:20 1911
  2509  1.0648e-02  3.9123e-03  2.0932e-03  1.0565e-02  1.9410e-03  1.3999e-03  0:01:52 1910
  2510  1.0609e-02  3.8948e-03  2.0566e-03  1.0530e-02  1.9525e-03  1.3887e-03  0:01:29 1909
  2511  1.0575e-02  3.8746e-03  2.0280e-03  1.0501e-02  1.9647e-03  1.3803e-03  0:01:12 1908
  2512  1.0499e-02  3.8542e-03  1.9989e-03  1.0426e-02  1.9756e-03  1.3714e-03  0:07:19 1907
  2513  1.0408e-02  3.8418e-03  1.9795e-03  1.0334e-02  1.9851e-03  1.3690e-03  0:05:51 1906
  2514  1.0315e-02  3.8339e-03  1.9645e-03  1.0241e-02  1.9996e-03  1.3645e-03  0:04:40 1905
  2515  1.0218e-02  3.8200e-03  1.9497e-03  1.0145e-02  2.0138e-03  1.3522e-03  0:03:44 1904
  2516  1.0114e-02  3.8075e-03  1.9399e-03  1.0042e-02  2.0263e-03  1.3361e-03  0:02:59 1903
  2517  1.0005e-02  3.7923e-03  1.9358e-03  9.9357e-03  2.0391e-03  1.3292e-03  0:02:23 1902

  iter  continuity  x-velocity  y-velocity      energy           k       omega     time/iter
  2518  9.8943e-03  3.7729e-03  1.9063e-03  9.8271e-03  2.0529e-03  1.3218e-03  0:01:55 1901
  2519  9.7904e-03  3.7520e-03  1.8824e-03  9.7255e-03  2.0671e-03  1.3171e-03  0:01:32 1900
  2520  9.6941e-03  3.7324e-03  1.8605e-03  9.6320e-03  2.0807e-03  1.3100e-03  0:01:13 1899
  2521  9.6011e-03  3.7177e-03  1.8404e-03  9.5422e-03  2.0949e-03  1.3035e-03  0:07:18 1898
  2522  9.4930e-03  3.7069e-03  1.8259e-03  9.4364e-03  2.1083e-03  1.2977e-03  0:05:50 1897
  2523  9.3907e-03  3.6987e-03  1.8194e-03  9.3367e-03  2.1196e-03  1.2895e-03  0:04:40 1896
  2524  9.2943e-03  3.6834e-03  1.8140e-03  9.2432e-03  2.1310e-03  1.2801e-03  0:03:44 1895
  2525  9.2117e-03  3.6705e-03  1.8060e-03  9.1652e-03  2.1427e-03  1.2712e-03  0:02:59 1894
  2526  9.1274e-03  3.6481e-03  1.8034e-03  9.0852e-03  2.1525e-03  1.2607e-03  0:02:23 1893
  2527  9.0410e-03  3.6302e-03  1.7845e-03  9.0028e-03  2.1611e-03  1.2468e-03  0:01:55 1892
  2528  8.9468e-03  3.6146e-03  1.7734e-03  8.9113e-03  2.1688e-03  1.2357e-03  0:01:32 1891

  iter  continuity  x-velocity  y-velocity      energy           k       omega     time/iter
  2529  8.8595e-03  3.5993e-03  1.7760e-03  8.8259e-03  2.1749e-03  1.2278e-03  0:01:13 1890
  2530  8.7396e-03  3.5862e-03  1.7788e-03  8.7059e-03  2.1801e-03  1.2187e-03  0:00:59 1889
  2531  8.6197e-03  3.5742e-03  1.7849e-03  8.5862e-03  2.1843e-03  1.2049e-03  0:07:04 1888
  2532  8.5117e-03  3.5654e-03  1.7949e-03  8.4794e-03  2.1886e-03  1.1918e-03  0:05:39 1887
  2533  8.4114e-03  3.5450e-03  1.7950e-03  8.3805e-03  2.1918e-03  1.1798e-03  0:04:31 1886
  2534  8.3227e-03  3.5225e-03  1.8067e-03  8.2928e-03  2.1946e-03  1.1696e-03  0:03:37 1885
  2535  8.2258e-03  3.4831e-03  1.7974e-03  8.1963e-03  2.1973e-03  1.1601e-03  0:02:53 1884
  2536  8.1363e-03  3.4495e-03  1.7925e-03  8.1061e-03  2.1987e-03  1.1519e-03  0:02:19 1883
  2537  8.0751e-03  3.4219e-03  1.7927e-03  8.0450e-03  2.1994e-03  1.1424e-03  0:01:51 1882
  2538  8.0303e-03  3.3947e-03  1.7928e-03  8.0001e-03  2.2000e-03  1.1324e-03  0:01:29 1881
  2539  7.9890e-03  3.3721e-03  1.7937e-03  7.9577e-03  2.1992e-03  1.1231e-03  0:01:11 1880

  iter  continuity  x-velocity  y-velocity      energy           k       omega     time/iter
  2540  7.9631e-03  3.3515e-03  1.7972e-03  7.9307e-03  2.1980e-03  1.1138e-03  0:00:57 1879
  2541  7.9521e-03  3.3256e-03  1.8008e-03  7.9186e-03  2.1955e-03  1.1033e-03  0:07:01 1878
  2542  7.9597e-03  3.2963e-03  1.8050e-03  7.9250e-03  2.1923e-03  1.0936e-03  0:05:37 1877
  2543  7.9857e-03  3.2696e-03  1.8074e-03  7.9499e-03  2.1884e-03  1.0858e-03  0:04:29 1876
  2544  8.0158e-03  3.2404e-03  1.8083e-03  7.9775e-03  2.1853e-03  1.0784e-03  0:03:35 1875
  2545  8.0614e-03  3.2022e-03  1.8062e-03  8.0206e-03  2.1829e-03  1.0710e-03  0:02:52 1874
  2546  8.1188e-03  3.1661e-03  1.7940e-03  8.0753e-03  2.1794e-03  1.0639e-03  0:02:18 1873
  2547  8.1867e-03  3.1312e-03  1.7838e-03  8.1403e-03  2.1748e-03  1.0588e-03  0:01:50 1872
  2548  8.2702e-03  3.1010e-03  1.7735e-03  8.2210e-03  2.1716e-03  1.0547e-03  0:01:28 1871
  2549  8.3726e-03  3.0721e-03  1.7640e-03  8.3211e-03  2.1683e-03  1.0503e-03  0:01:10 1870
  2550  8.4767e-03  3.0433e-03  1.7611e-03  8.4223e-03  2.1659e-03  1.0437e-03  0:00:56 1869

  iter  continuity  x-velocity  y-velocity      energy           k       omega     time/iter
  2551  8.5822e-03  3.0128e-03  1.7548e-03  8.5253e-03  2.1631e-03  1.0355e-03  0:06:59 1868
  2552  8.6880e-03  2.9817e-03  1.7486e-03  8.6286e-03  2.1595e-03  1.0260e-03  0:05:35 1867
  2553  8.7961e-03  2.9496e-03  1.7395e-03  8.7340e-03  2.1555e-03  1.0163e-03  0:04:28 1866
  2554  8.8991e-03  2.9184e-03  1.7305e-03  8.8346e-03  2.1520e-03  1.0084e-03  0:03:34 1865
  2555  8.9937e-03  2.8856e-03  1.7248e-03  8.9271e-03  2.1488e-03  1.0009e-03  0:02:51 1864
  2556  9.0737e-03  2.8497e-03  1.7134e-03  9.0045e-03  2.1452e-03  9.9463e-04  0:02:17 1863
  2557  9.1505e-03  2.8175e-03  1.7025e-03  9.0791e-03  2.1412e-03  9.8817e-04  0:01:49 1862
  2558  9.2230e-03  2.7893e-03  1.6848e-03  9.1495e-03  2.1359e-03  9.8102e-04  0:01:27 1861
  2559  9.2950e-03  2.7654e-03  1.6676e-03  9.2197e-03  2.1295e-03  9.7224e-04  0:01:10 1860
  2560  9.3679e-03  2.7406e-03  1.6508e-03  9.2914e-03  2.1236e-03  9.6343e-04  0:07:08 1859
  2561  9.4358e-03  2.7140e-03  1.6378e-03  9.3585e-03  2.1169e-03  9.5412e-04  0:05:42 1858

  iter  continuity  x-velocity  y-velocity      energy           k       omega     time/iter
  2562  9.4849e-03  2.6884e-03  1.6200e-03  9.4067e-03  2.1085e-03  9.4535e-04  0:04:33 1857
  2563  9.5235e-03  2.6665e-03  1.6093e-03  9.4443e-03  2.0986e-03  9.3588e-04  0:03:39 1856
  2564  9.5571e-03  2.6455e-03  1.5973e-03  9.4775e-03  2.0879e-03  9.2557e-04  0:02:55 1855
  2565  9.5793e-03  2.6216e-03  1.5797e-03  9.4994e-03  2.0761e-03  9.1600e-04  0:02:20 1854
  2566  9.5977e-03  2.5988e-03  1.5623e-03  9.5179e-03  2.0642e-03  9.0689e-04  0:01:52 1853
  2567  9.6082e-03  2.5759e-03  1.5468e-03  9.5284e-03  2.0515e-03  8.9776e-04  0:01:29 1852
  2568  9.5947e-03  2.5531e-03  1.5307e-03  9.5149e-03  2.0373e-03  8.9076e-04  0:01:11 1851
  2569  9.5722e-03  2.5331e-03  1.5133e-03  9.4927e-03  2.0222e-03  8.8225e-04  0:00:57 1850
  2570  9.5425e-03  2.5150e-03  1.4945e-03  9.4638e-03  2.0074e-03  8.7320e-04  0:06:55 1849
  2571  9.5076e-03  2.4989e-03  1.4772e-03  9.4298e-03  1.9932e-03  8.6486e-04  0:05:32 1848
  2572  9.4680e-03  2.4830e-03  1.4567e-03  9.3913e-03  1.9789e-03  8.5667e-04  0:04:26 1847

  iter  continuity  x-velocity  y-velocity      energy           k       omega     time/iter
  2573  9.4239e-03  2.4688e-03  1.4355e-03  9.3488e-03  1.9657e-03  8.4825e-04  0:03:32 1846
  2574  9.3700e-03  2.4554e-03  1.4152e-03  9.2968e-03  1.9545e-03  8.4163e-04  0:02:50 1845
  2575  9.3100e-03  2.4427e-03  1.3952e-03  9.2387e-03  1.9449e-03  8.3448e-04  0:02:16 1844
  2576  9.2482e-03  2.4325e-03  1.3781e-03  9.1794e-03  1.9359e-03  8.2640e-04  0:01:49 1843
  2577  9.1801e-03  2.4239e-03  1.3605e-03  9.1139e-03  1.9272e-03  8.1851e-04  0:01:27 1842
  2578  9.1048e-03  2.4155e-03  1.3428e-03  9.0414e-03  1.9186e-03  8.1072e-04  0:01:09 1841
  2579  9.0178e-03  2.4056e-03  1.3263e-03  8.9573e-03  1.9112e-03  8.0323e-04  0:00:55 1840
  2580  8.9158e-03  2.3956e-03  1.3131e-03  8.8581e-03  1.9054e-03  7.9664e-04  0:06:52 1839
  2581  8.7982e-03  2.3857e-03  1.3029e-03  8.7433e-03  1.9002e-03  7.9049e-04  0:05:30 1838
  2582  8.6671e-03  2.3759e-03  1.2953e-03  8.6151e-03  1.8951e-03  7.8490e-04  0:04:24 1837
  2583  8.5238e-03  2.3641e-03  1.2897e-03  8.4745e-03  1.8900e-03  7.7911e-04  0:03:31 1836

  iter  continuity  x-velocity  y-velocity      energy           k       omega     time/iter
  2584  8.3675e-03  2.3537e-03  1.2866e-03  8.3210e-03  1.8850e-03  7.7315e-04  0:02:48 1835
  2585  8.1935e-03  2.3433e-03  1.2864e-03  8.1497e-03  1.8813e-03  7.6691e-04  0:02:15 1834
  2586  8.0052e-03  2.3329e-03  1.2888e-03  7.9639e-03  1.8789e-03  7.6045e-04  0:01:48 1833
  2587  7.8020e-03  2.3221e-03  1.2933e-03  7.7630e-03  1.8769e-03  7.5474e-04  0:01:26 1832
  2588  7.5836e-03  2.3112e-03  1.3007e-03  7.5467e-03  1.8749e-03  7.4874e-04  0:01:09 1831
  2589  7.3525e-03  2.2996e-03  1.3096e-03  7.3172e-03  1.8730e-03  7.4261e-04  0:00:55 1830
  2590  7.1127e-03  2.2881e-03  1.3206e-03  7.0788e-03  1.8719e-03  7.3651e-04  0:00:44 1829
  2591  6.8632e-03  2.2772e-03  1.3336e-03  6.8303e-03  1.8715e-03  7.3215e-04  0:06:41 1828
  2592  6.6083e-03  2.2667e-03  1.3478e-03  6.5760e-03  1.8721e-03  7.2792e-04  0:05:20 1827
  2593  6.3536e-03  2.2559e-03  1.3619e-03  6.3215e-03  1.8728e-03  7.2380e-04  0:04:16 1826
  2594  6.1013e-03  2.2446e-03  1.3775e-03  6.0686e-03  1.8738e-03  7.2000e-04  0:03:25 1825

  iter  continuity  x-velocity  y-velocity      energy           k       omega     time/iter
  2595  5.8580e-03  2.2333e-03  1.3945e-03  5.8243e-03  1.8755e-03  7.1649e-04  0:02:44 1824
  2596  5.6321e-03  2.2219e-03  1.4124e-03  5.5966e-03  1.8772e-03  7.1316e-04  0:02:11 1823
  2597  5.4320e-03  2.2105e-03  1.4298e-03  5.3942e-03  1.8794e-03  7.0978e-04  0:01:45 1822
  2598  5.2636e-03  2.1998e-03  1.4465e-03  5.2229e-03  1.8819e-03  7.0715e-04  0:01:24 1821
  2599  5.1350e-03  2.1898e-03  1.4624e-03  5.0910e-03  1.8843e-03  7.0410e-04  0:01:07 1820
  2600  5.0510e-03  2.1786e-03  1.4759e-03  5.0033e-03  1.8867e-03  7.0104e-04  0:00:54 1819
  2601  5.0168e-03  2.1660e-03  1.4878e-03  4.9653e-03  1.8886e-03  6.9744e-04  0:06:46 1818
  2602  5.0339e-03  2.1515e-03  1.4977e-03  4.9785e-03  1.8905e-03  6.9341e-04  0:05:25 1817
  2603  5.1013e-03  2.1345e-03  1.5072e-03  5.0423e-03  1.8924e-03  6.8971e-04  0:04:20 1816
  2604  5.2134e-03  2.1180e-03  1.5152e-03  5.1510e-03  1.8944e-03  6.8582e-04  0:03:28 1815
  2605  5.3646e-03  2.1012e-03  1.5216e-03  5.2992e-03  1.8963e-03  6.8189e-04  0:02:46 1814

  iter  continuity  x-velocity  y-velocity      energy           k       omega     time/iter
  2606  5.5487e-03  2.0846e-03  1.5254e-03  5.4805e-03  1.8976e-03  6.7770e-04  0:02:13 1813
  2607  5.7544e-03  2.0680e-03  1.5259e-03  5.6838e-03  1.8983e-03  6.7320e-04  0:01:46 1812
  2608  5.9772e-03  2.0505e-03  1.5243e-03  5.9046e-03  1.8988e-03  6.6853e-04  0:01:25 1811
  2609  6.2097e-03  2.0312e-03  1.5206e-03  6.1354e-03  1.8986e-03  6.6442e-04  0:01:08 1810
  2610  6.4434e-03  2.0110e-03  1.5151e-03  6.3677e-03  1.8980e-03  6.5953e-04  0:00:54 1809
  2611  6.6716e-03  1.9898e-03  1.5069e-03  6.5947e-03  1.8967e-03  6.5281e-04  0:00:43 1808
  2612  6.8913e-03  1.9689e-03  1.4957e-03  6.8134e-03  1.8947e-03  6.4725e-04  0:06:36 1807
  2613  7.0990e-03  1.9477e-03  1.4842e-03  7.0202e-03  1.8921e-03  6.4245e-04  0:05:17 1806
  2614  7.2887e-03  1.9262e-03  1.4715e-03  7.2093e-03  1.8886e-03  6.3788e-04  0:04:13 1805
  2615  7.4591e-03  1.9052e-03  1.4577e-03  7.3793e-03  1.8846e-03  6.3324e-04  0:03:22 1804
  2616  7.6100e-03  1.8843e-03  1.4419e-03  7.5299e-03  1.8798e-03  6.2874e-04  0:02:42 1803

  iter  continuity  x-velocity  y-velocity      energy           k       omega     time/iter
  2617  7.7401e-03  1.8647e-03  1.4251e-03  7.6598e-03  1.8741e-03  6.2396e-04  0:02:09 1802
  2618  7.8472e-03  1.8445e-03  1.4068e-03  7.7668e-03  1.8678e-03  6.1893e-04  0:01:43 1801
  2619  7.9299e-03  1.8234e-03  1.3872e-03  7.8496e-03  1.8608e-03  6.1390e-04  0:01:23 1800
  2620  7.9845e-03  1.8030e-03  1.3672e-03  7.9043e-03  1.8533e-03  6.0882e-04  0:01:06 1799
  2621  8.0132e-03  1.7835e-03  1.3466e-03  7.9333e-03  1.8448e-03  6.0351e-04  0:00:53 1798
  2622  8.0213e-03  1.7640e-03  1.3253e-03  7.9418e-03  1.8355e-03  5.9896e-04  0:06:42 1797
  2623  8.0102e-03  1.7437e-03  1.3031e-03  7.9311e-03  1.8262e-03  5.9475e-04  0:05:21 1796
  2624  7.9828e-03  1.7230e-03  1.2819e-03  7.9043e-03  1.8161e-03  5.8907e-04  0:04:17 1795
  2625  7.9396e-03  1.7036e-03  1.2615e-03  7.8617e-03  1.8059e-03  5.8362e-04  0:03:25 1794
  2626  7.8823e-03  1.6854e-03  1.2414e-03  7.8052e-03  1.7948e-03  5.7828e-04  0:02:44 1793
  2627  7.8134e-03  1.6679e-03  1.2212e-03  7.7372e-03  1.7833e-03  5.7342e-04  0:02:11 1792

  iter  continuity  x-velocity  y-velocity      energy           k       omega     time/iter
  2628  7.7350e-03  1.6508e-03  1.2002e-03  7.6597e-03  1.7718e-03  5.6900e-04  0:01:45 1791
  2629  7.6494e-03  1.6333e-03  1.1803e-03  7.5752e-03  1.7604e-03  5.6431e-04  0:01:24 1790
  2630  7.5566e-03  1.6139e-03  1.1614e-03  7.4835e-03  1.7489e-03  5.5974e-04  0:01:07 1789
  2631  7.4566e-03  1.5952e-03  1.1435e-03  7.3847e-03  1.7371e-03  5.5515e-04  0:00:54 1788
  2632  7.3500e-03  1.5780e-03  1.1265e-03  7.2794e-03  1.7248e-03  5.4969e-04  0:06:40 1787
  2633  7.2399e-03  1.5621e-03  1.1106e-03  7.1707e-03  1.7126e-03  5.4476e-04  0:05:20 1786
  2634  7.1296e-03  1.5475e-03  1.0957e-03  7.0619e-03  1.7004e-03  5.4052e-04  0:04:16 1785
  2635  7.0202e-03  1.5340e-03  1.0817e-03  6.9540e-03  1.6879e-03  5.3675e-04  0:03:25 1784
  2636  6.9126e-03  1.5208e-03  1.0686e-03  6.8481e-03  1.6751e-03  5.3263e-04  0:02:44 1783
  2637  6.8077e-03  1.5076e-03  1.0567e-03  6.7450e-03  1.6621e-03  5.2882e-04  0:02:11 1782
  2638  6.7040e-03  1.4940e-03  1.0457e-03  6.6431e-03  1.6491e-03  5.2532e-04  0:01:45 1781

  iter  continuity  x-velocity  y-velocity      energy           k       omega     time/iter
  2639  6.6014e-03  1.4811e-03  1.0358e-03  6.5424e-03  1.6358e-03  5.2127e-04  0:01:24 1780
  2640  6.5031e-03  1.4676e-03  1.0276e-03  6.4461e-03  1.6226e-03  5.1826e-04  0:01:07 1779
  2641  6.4063e-03  1.4535e-03  1.0206e-03  6.3511e-03  1.6094e-03  5.1476e-04  0:00:53 1778
  2642  6.3079e-03  1.4414e-03  1.0146e-03  6.2545e-03  1.5963e-03  5.1222e-04  0:06:38 1777
  2643  6.2055e-03  1.4308e-03  1.0100e-03  6.1538e-03  1.5831e-03  5.0967e-04  0:05:18 1776
  2644  6.0989e-03  1.4229e-03  1.0060e-03  6.0489e-03  1.5701e-03  5.0721e-04  0:04:15 1775
  2645  5.9869e-03  1.4141e-03  1.0026e-03  5.9384e-03  1.5570e-03  5.0496e-04  0:03:24 1774
  2646  5.8675e-03  1.4036e-03  9.9994e-04  5.8204e-03  1.5443e-03  5.0297e-04  0:02:43 1773
  2647  5.7397e-03  1.3926e-03  9.9820e-04  5.6939e-03  1.5318e-03  5.0135e-04  0:02:10 1772
  2648  5.6013e-03  1.3819e-03  9.9700e-04  5.5567e-03  1.5196e-03  5.0002e-04  0:01:44 1771
  2649  5.4527e-03  1.3717e-03  9.9613e-04  5.4092e-03  1.5077e-03  4.9887e-04  0:07:17 1770

  iter  continuity  x-velocity  y-velocity      energy           k       omega     time/iter
  2650  5.2948e-03  1.3626e-03  9.9528e-04  5.2521e-03  1.4958e-03  4.9792e-04  0:05:50 1769
  2651  5.1281e-03  1.3545e-03  9.9411e-04  5.0861e-03  1.4839e-03  4.9676e-04  0:04:39 1768
  2652  4.9535e-03  1.3457e-03  9.9263e-04  4.9120e-03  1.4724e-03  4.9570e-04  0:03:43 1767
  2653  4.7723e-03  1.3364e-03  9.9075e-04  4.7312e-03  1.4608e-03  4.9526e-04  0:02:59 1766
  2654  4.5859e-03  1.3286e-03  9.8816e-04  4.5449e-03  1.4493e-03  4.9457e-04  0:02:23 1765
  2655  4.3964e-03  1.3226e-03  9.8465e-04  4.3553e-03  1.4379e-03  4.9388e-04  0:01:54 1764
  2656  4.2062e-03  1.3174e-03  9.8010e-04  4.1648e-03  1.4264e-03  4.9313e-04  0:01:31 1763
  2657  4.0172e-03  1.3123e-03  9.7468e-04  3.9753e-03  1.4153e-03  4.9240e-04  0:01:13 1762
  2658  3.8303e-03  1.3085e-03  9.6823e-04  3.7876e-03  1.4041e-03  4.9183e-04  0:00:58 1761
  2659  3.6514e-03  1.3052e-03  9.6087e-04  3.6077e-03  1.3926e-03  4.9098e-04  0:06:39 1760
  2660  3.4834e-03  1.2998e-03  9.5235e-04  3.4386e-03  1.3816e-03  4.9006e-04  0:05:19 1759

  iter  continuity  x-velocity  y-velocity      energy           k       omega     time/iter
  2661  3.3302e-03  1.2944e-03  9.4266e-04  3.2839e-03  1.3711e-03  4.8993e-04  0:04:15 1758
  2662  3.1960e-03  1.2860e-03  9.3255e-04  3.1481e-03  1.3611e-03  4.8960e-04  0:03:24 1757
  2663  3.0840e-03  1.2789e-03  9.2193e-04  3.0345e-03  1.3518e-03  4.8879e-04  0:02:43 1756
  2664  2.9948e-03  1.2705e-03  9.1060e-04  2.9436e-03  1.3426e-03  4.8793e-04  0:02:10 1755
  2665  2.9303e-03  1.2618e-03  8.9818e-04  2.8775e-03  1.3339e-03  4.8771e-04  0:01:44 1754
  2666  2.8907e-03  1.2564e-03  8.8357e-04  2.8364e-03  1.3258e-03  4.8684e-04  0:01:23 1753
  2667  2.8743e-03  1.2514e-03  8.6754e-04  2.8188e-03  1.3184e-03  4.8607e-04  0:01:07 1752
  2668  2.8796e-03  1.2478e-03  8.5099e-04  2.8232e-03  1.3120e-03  4.8532e-04  0:00:53 1751
  2669  2.9034e-03  1.2460e-03  8.3410e-04  2.8463e-03  1.3058e-03  4.8499e-04  0:06:33 1750
  2670  2.9418e-03  1.2435e-03  8.1675e-04  2.8842e-03  1.3000e-03  4.8430e-04  0:05:14 1749
  2671  2.9915e-03  1.2373e-03  7.9943e-04  2.9337e-03  1.2944e-03  4.8345e-04  0:04:11 1748

  iter  continuity  x-velocity  y-velocity      energy           k       omega     time/iter
  2672  3.0494e-03  1.2317e-03  7.8225e-04  2.9916e-03  1.2888e-03  4.8261e-04  0:03:21 1747
  2673  3.1123e-03  1.2267e-03  7.6511e-04  3.0548e-03  1.2836e-03  4.8194e-04  0:02:40 1746
  2674  3.1773e-03  1.2218e-03  7.4816e-04  3.1201e-03  1.2785e-03  4.8138e-04  0:02:08 1745
  2675  3.2421e-03  1.2173e-03  7.3130e-04  3.1853e-03  1.2742e-03  4.8091e-04  0:01:43 1744
  2676  3.3047e-03  1.2153e-03  7.1495e-04  3.2483e-03  1.2702e-03  4.8054e-04  0:01:22 1743
  2677  3.3629e-03  1.2118e-03  6.9932e-04  3.3070e-03  1.2667e-03  4.8020e-04  0:01:06 1742
  2678  3.4156e-03  1.2087e-03  6.8417e-04  3.3603e-03  1.2637e-03  4.7985e-04  0:00:52 1741
  2679  3.4621e-03  1.2062e-03  6.6991e-04  3.4075e-03  1.2615e-03  4.7935e-04  0:06:30 1740
  2680  3.5016e-03  1.2049e-03  6.5702e-04  3.4476e-03  1.2599e-03  4.7869e-04  0:05:12 1739
  2681  3.5343e-03  1.2055e-03  6.4609e-04  3.4809e-03  1.2595e-03  4.7761e-04  0:04:09 1738
  2682  3.5593e-03  1.2060e-03  6.3611e-04  3.5065e-03  1.2596e-03  4.7692e-04  0:03:19 1737

  iter  continuity  x-velocity  y-velocity      energy           k       omega     time/iter
  2683  3.5768e-03  1.2057e-03  6.2543e-04  3.5246e-03  1.2604e-03  4.7653e-04  0:02:39 1736
  2684  3.5874e-03  1.2047e-03  6.1492e-04  3.5357e-03  1.2616e-03  4.7608e-04  0:02:07 1735
  2685  3.5917e-03  1.2041e-03  6.0540e-04  3.5407e-03  1.2633e-03  4.7545e-04  0:01:42 1734
  2686  3.5897e-03  1.2021e-03  5.9718e-04  3.5394e-03  1.2657e-03  4.7439e-04  0:01:21 1733
  2687  3.5826e-03  1.2009e-03  5.9010e-04  3.5328e-03  1.2689e-03  4.7345e-04  0:01:05 1732
  2688  3.5706e-03  1.1984e-03  5.8390e-04  3.5214e-03  1.2729e-03  4.7276e-04  0:00:52 1731
  2689  3.5545e-03  1.1967e-03  5.7848e-04  3.5058e-03  1.2770e-03  4.7188e-04  0:06:28 1730
  2690  3.5345e-03  1.1952e-03  5.7376e-04  3.4863e-03  1.2816e-03  4.7100e-04  0:05:10 1729
  2691  3.5121e-03  1.1937e-03  5.7010e-04  3.4644e-03  1.2858e-03  4.7018e-04  0:04:08 1728
  2692  3.4885e-03  1.1926e-03  5.6725e-04  3.4413e-03  1.2898e-03  4.6933e-04  0:03:18 1727
  2693  3.4647e-03  1.1920e-03  5.6474e-04  3.4179e-03  1.2935e-03  4.6854e-04  0:02:38 1726

  iter  continuity  x-velocity  y-velocity      energy           k       omega     time/iter
  2694  3.4419e-03  1.1916e-03  5.6247e-04  3.3955e-03  1.2969e-03  4.6782e-04  0:02:07 1725
  2695  3.4207e-03  1.1904e-03  5.6053e-04  3.3746e-03  1.3000e-03  4.6698e-04  0:01:41 1724
  2696  3.4019e-03  1.1879e-03  5.5874e-04  3.3561e-03  1.3029e-03  4.6604e-04  0:01:21 1723
  2697  3.3866e-03  1.1857e-03  5.5710e-04  3.3410e-03  1.3055e-03  4.6491e-04  0:01:05 1722
  2698  3.3759e-03  1.1835e-03  5.5552e-04  3.3305e-03  1.3080e-03  4.6437e-04  0:00:52 1721
  2699  3.3708e-03  1.1812e-03  5.5386e-04  3.3255e-03  1.3102e-03  4.6383e-04  0:06:25 1720
  2700  3.3720e-03  1.1785e-03  5.5211e-04  3.3269e-03  1.3123e-03  4.6309e-04  0:05:08 1719
  2701  3.3805e-03  1.1762e-03  5.5019e-04  3.3355e-03  1.3142e-03  4.6234e-04  0:04:06 1718
  2702  3.3967e-03  1.1738e-03  5.4859e-04  3.3518e-03  1.3159e-03  4.6153e-04  0:03:17 1717
  2703  3.4201e-03  1.1699e-03  5.4672e-04  3.3753e-03  1.3173e-03  4.6076e-04  0:02:37 1716
  2704  3.4508e-03  1.1660e-03  5.4433e-04  3.4060e-03  1.3187e-03  4.6000e-04  0:02:06 1715

  iter  continuity  x-velocity  y-velocity      energy           k       omega     time/iter
  2705  3.4879e-03  1.1617e-03  5.4172e-04  3.4431e-03  1.3201e-03  4.5917e-04  0:01:41 1714
  2706  3.5310e-03  1.1576e-03  5.3915e-04  3.4862e-03  1.3214e-03  4.5821e-04  0:01:20 1713
  2707  3.5788e-03  1.1522e-03  5.3608e-04  3.5340e-03  1.3226e-03  4.5711e-04  0:01:04 1712
  2708  3.6301e-03  1.1468e-03  5.3271e-04  3.5853e-03  1.3235e-03  4.5598e-04  0:00:51 1711
  2709  3.6833e-03  1.1406e-03  5.2912e-04  3.6384e-03  1.3242e-03  4.5455e-04  0:00:41 1710
  2710  3.7368e-03  1.1342e-03  5.2549e-04  3.6919e-03  1.3247e-03  4.5319e-04  0:06:15 1709
  2711  3.7893e-03  1.1278e-03  5.2179e-04  3.7443e-03  1.3250e-03  4.5202e-04  0:05:00 1708
  2712  3.8387e-03  1.1212e-03  5.1794e-04  3.7936e-03  1.3250e-03  4.5055e-04  0:04:00 1707
  2713  3.8832e-03  1.1146e-03  5.1437e-04  3.8381e-03  1.3250e-03  4.4886e-04  0:03:12 1706
  2714  3.9215e-03  1.1084e-03  5.1057e-04  3.8763e-03  1.3247e-03  4.4709e-04  0:02:33 1705
  2715  3.9522e-03  1.1030e-03  5.0666e-04  3.9069e-03  1.3239e-03  4.4520e-04  0:02:02 1704

  iter  continuity  x-velocity  y-velocity      energy           k       omega     time/iter
  2716  3.9739e-03  1.0966e-03  5.0268e-04  3.9286e-03  1.3229e-03  4.4322e-04  0:01:38 1703
  2717  3.9860e-03  1.0900e-03  4.9878e-04  3.9406e-03  1.3217e-03  4.4122e-04  0:01:18 1702
  2718  3.9878e-03  1.0837e-03  4.9517e-04  3.9423e-03  1.3203e-03  4.3900e-04  0:01:03 1701
  2719  3.9790e-03  1.0784e-03  4.9196e-04  3.9334e-03  1.3187e-03  4.3657e-04  0:00:50 1700
  2720  3.9596e-03  1.0739e-03  4.8906e-04  3.9139e-03  1.3167e-03  4.3393e-04  0:06:20 1699
  2721  3.9295e-03  1.0709e-03  4.8622e-04  3.8835e-03  1.3144e-03  4.3174e-04  0:05:04 1698
  2722  3.8888e-03  1.0683e-03  4.8375e-04  3.8426e-03  1.3119e-03  4.2940e-04  0:04:03 1697
  2723  3.8383e-03  1.0692e-03  4.8167e-04  3.7919e-03  1.3091e-03  4.2682e-04  0:03:14 1696
  2724  3.7791e-03  1.0691e-03  4.7956e-04  3.7323e-03  1.3062e-03  4.2445e-04  0:02:35 1695
  2725  3.7119e-03  1.0674e-03  4.7739e-04  3.6648e-03  1.3030e-03  4.2195e-04  0:02:04 1694
  2726  3.6386e-03  1.0647e-03  4.7532e-04  3.5912e-03  1.2997e-03  4.1941e-04  0:01:39 1693

  iter  continuity  x-velocity  y-velocity      energy           k       omega     time/iter
  2727  3.5606e-03  1.0619e-03  4.7292e-04  3.5127e-03  1.2964e-03  4.1678e-04  0:01:19 1692
  2728  3.4797e-03  1.0590e-03  4.7077e-04  3.4314e-03  1.2930e-03  4.1425e-04  0:01:03 1691
  2729  3.3972e-03  1.0528e-03  4.6865e-04  3.3485e-03  1.2896e-03  4.1159e-04  0:00:51 1690
  2730  3.3152e-03  1.0458e-03  4.6679e-04  3.2660e-03  1.2862e-03  4.0888e-04  0:06:18 1689
  2731  3.2345e-03  1.0401e-03  4.6467e-04  3.1848e-03  1.2826e-03  4.0616e-04  0:05:02 1688
  2732  3.1573e-03  1.0337e-03  4.6234e-04  3.1072e-03  1.2787e-03  4.0341e-04  0:04:02 1687
  2733  3.0851e-03  1.0295e-03  4.5963e-04  3.0347e-03  1.2749e-03  4.0066e-04  0:03:13 1686
  2734  3.0191e-03  1.0271e-03  4.5672e-04  2.9684e-03  1.2711e-03  3.9813e-04  0:02:35 1685
  2735  2.9598e-03  1.0249e-03  4.5384e-04  2.9089e-03  1.2671e-03  3.9574e-04  0:02:04 1684
  2736  2.9077e-03  1.0220e-03  4.5078e-04  2.8567e-03  1.2629e-03  3.9342e-04  0:01:39 1683
  2737  2.8632e-03  1.0177e-03  4.4765e-04  2.8121e-03  1.2584e-03  3.9132e-04  0:01:19 1682

  iter  continuity  x-velocity  y-velocity      energy           k       omega     time/iter
  2738  2.8270e-03  1.0159e-03  4.4431e-04  2.7760e-03  1.2537e-03  3.8931e-04  0:01:03 1681
  2739  2.7990e-03  1.0157e-03  4.4056e-04  2.7483e-03  1.2486e-03  3.8725e-04  0:00:51 1680
  2740  2.7780e-03  1.0147e-03  4.3709e-04  2.7276e-03  1.2429e-03  3.8523e-04  0:06:16 1679
  2741  2.7631e-03  1.0141e-03  4.3378e-04  2.7131e-03  1.2368e-03  3.8342e-04  0:05:01 1678
  2742  2.7535e-03  1.0161e-03  4.3079e-04  2.7039e-03  1.2303e-03  3.8178e-04  0:04:00 1677
  2743  2.7476e-03  1.0187e-03  4.2801e-04  2.6985e-03  1.2232e-03  3.8027e-04  0:03:12 1676
  2744  2.7434e-03  1.0077e-03  4.2563e-04  2.6948e-03  1.2158e-03  3.7873e-04  0:02:34 1675
  2745  2.7414e-03  1.0050e-03  4.2394e-04  2.6934e-03  1.2077e-03  3.7744e-04  0:02:03 1674
  2746  2.7402e-03  1.0076e-03  4.2235e-04  2.6927e-03  1.1992e-03  3.7623e-04  0:01:38 1673
  2747  2.7381e-03  1.0100e-03  4.2031e-04  2.6912e-03  1.1902e-03  3.7535e-04  0:01:19 1672
  2748  2.7348e-03  1.0094e-03  4.1938e-04  2.6884e-03  1.1807e-03  3.7471e-04  0:01:03 1671

  iter  continuity  x-velocity  y-velocity      energy           k       omega     time/iter
  2749  2.7297e-03  1.0061e-03  4.1931e-04  2.6838e-03  1.1708e-03  3.7408e-04  0:00:50 1670
  2750  2.7223e-03  1.0084e-03  4.1885e-04  2.6767e-03  1.1604e-03  3.7347e-04  0:00:40 1669
  2751  2.7113e-03  1.0125e-03  4.1760e-04  2.6661e-03  1.1495e-03  3.7274e-04  0:06:06 1668
  2752  2.6975e-03  1.0185e-03  4.1705e-04  2.6523e-03  1.1381e-03  3.7202e-04  0:04:52 1667
  2753  2.6801e-03  1.0210e-03  4.1734e-04  2.6351e-03  1.1264e-03  3.7194e-04  0:03:54 1666
  2754  2.6601e-03  1.0274e-03  4.1816e-04  2.6150e-03  1.1141e-03  3.7212e-04  0:03:07 1665
  2755  2.6378e-03  1.0391e-03  4.1839e-04  2.5925e-03  1.1015e-03  3.7256e-04  0:02:29 1664
  2756  2.6130e-03  1.0422e-03  4.1853e-04  2.5674e-03  1.0886e-03  3.7324e-04  0:01:59 1663
  2757  2.5871e-03  1.0491e-03  4.1865e-04  2.5409e-03  1.0753e-03  3.7363e-04  0:01:36 1662
  2758  2.5588e-03  1.0556e-03  4.1915e-04  2.5122e-03  1.0618e-03  3.7424e-04  0:01:16 1661
  2759  2.5286e-03  1.0484e-03  4.2009e-04  2.4818e-03  1.0480e-03  3.7483e-04  0:01:01 1660

  iter  continuity  x-velocity  y-velocity      energy           k       omega     time/iter
  2760  2.4963e-03  1.0264e-03  4.2046e-04  2.4493e-03  1.0342e-03  3.7591e-04  0:06:21 1659
  2761  2.4683e-03  1.0275e-03  4.2052e-04  2.4210e-03  1.0200e-03  3.7707e-04  0:05:04 1658
  2762  2.4407e-03  1.0246e-03  4.2077e-04  2.3929e-03  1.0058e-03  3.7849e-04  0:04:03 1657
  2763  2.4163e-03  1.0253e-03  4.2092e-04  2.3679e-03  9.9173e-04  3.7956e-04  0:03:15 1656
  2764  2.3965e-03  1.0314e-03  4.2093e-04  2.3472e-03  9.7758e-04  3.8063e-04  0:02:36 1655
  2765  2.3805e-03  1.0379e-03  4.2142e-04  2.3302e-03  9.6340e-04  3.8200e-04  0:02:04 1654
  2766  2.3687e-03  1.0440e-03  4.2182e-04  2.3173e-03  9.4923e-04  3.8310e-04  0:01:39 1653
  2767  2.3610e-03  1.0425e-03  4.2141e-04  2.3085e-03  9.3511e-04  3.8415e-04  0:01:19 1652
  2768  2.3589e-03  1.0393e-03  4.2000e-04  2.3053e-03  9.2113e-04  3.8461e-04  0:01:04 1651
  2769  2.3627e-03  1.0372e-03  4.1886e-04  2.3079e-03  9.0768e-04  3.8564e-04  0:00:51 1650
  2770  2.3732e-03  1.0461e-03  4.1809e-04  2.3171e-03  8.9471e-04  3.8669e-04  0:00:41 1649

  iter  continuity  x-velocity  y-velocity      energy           k       omega     time/iter
  2771  2.3890e-03  1.0482e-03  4.1738e-04  2.3316e-03  8.8225e-04  3.8761e-04  0:06:02 1648
  2772  2.4107e-03  1.0558e-03  4.1637e-04  2.3519e-03  8.7008e-04  3.8897e-04  0:04:49 1647
  2773  2.4366e-03  1.0640e-03  4.1542e-04  2.3766e-03  8.5838e-04  3.8997e-04  0:03:51 1646
  2774  2.4663e-03  1.0713e-03  4.1458e-04  2.4053e-03  8.4726e-04  3.9099e-04  0:03:05 1645
  2775  2.5002e-03  1.0778e-03  4.1321e-04  2.4381e-03  8.3710e-04  3.9186e-04  0:02:28 1644
  2776  2.5372e-03  1.0839e-03  4.1185e-04  2.4739e-03  8.2776e-04  3.9229e-04  0:01:58 1643
  2777  2.5770e-03  1.0903e-03  4.0859e-04  2.5126e-03  8.1903e-04  3.9263e-04  0:01:35 1642
  2778  2.6194e-03  1.0956e-03  4.0619e-04  2.5538e-03  8.1097e-04  3.9293e-04  0:06:44 1641
  2779  2.6638e-03  1.1067e-03  4.0452e-04  2.5972e-03  8.0361e-04  3.9299e-04  0:05:23 1640
  2780  2.7074e-03  1.1100e-03  4.0275e-04  2.6400e-03  7.9704e-04  3.9356e-04  0:04:18 1639
  2781  2.7524e-03  1.1129e-03  4.0111e-04  2.6841e-03  7.9110e-04  3.9371e-04  0:03:26 1638

  iter  continuity  x-velocity  y-velocity      energy           k       omega     time/iter
  2782  2.7987e-03  1.1201e-03  3.9955e-04  2.7295e-03  7.8574e-04  3.9349e-04  0:02:45 1637
  2783  2.8447e-03  1.1251e-03  3.9879e-04  2.7745e-03  7.8099e-04  3.9282e-04  0:02:12 1636
  2784  2.8912e-03  1.1390e-03  3.9873e-04  2.8200e-03  7.7672e-04  3.9238e-04  0:01:45 1635
  2785  2.9370e-03  1.1472e-03  3.9693e-04  2.8649e-03  7.7272e-04  3.9175e-04  0:06:51 1634
  2786  2.9825e-03  1.1498e-03  3.9450e-04  2.9092e-03  7.6889e-04  3.9110e-04  0:05:29 1633
  2787  3.0298e-03  1.1710e-03  3.9503e-04  2.9551e-03  7.6517e-04  3.9036e-04  0:04:23 1632
  2788  3.0732e-03  1.1692e-03  3.9440e-04  2.9971e-03  7.6147e-04  3.8941e-04  0:03:30 1631
  2789  3.1169e-03  1.1728e-03  3.9323e-04  3.0394e-03  7.5787e-04  3.8838e-04  0:02:48 1630
  2790  3.1595e-03  1.1868e-03  3.9159e-04  3.0803e-03  7.5430e-04  3.8717e-04  0:02:14 1629
  2791  3.1941e-03  1.1529e-03  3.9009e-04  3.1141e-03  7.5079e-04  3.8586e-04  0:01:47 1628
  2792  3.2280e-03  1.1132e-03  3.8607e-04  3.1473e-03  7.4733e-04  3.8444e-04  0:01:26 1627

  iter  continuity  x-velocity  y-velocity      energy           k       omega     time/iter
  2793  3.2621e-03  1.0999e-03  3.8419e-04  3.1807e-03  7.4391e-04  3.8298e-04  0:01:09 1626
  2794  3.2953e-03  1.0944e-03  3.8355e-04  3.2130e-03  7.4046e-04  3.8159e-04  0:00:55 1625
  2795  3.3281e-03  1.0960e-03  3.8108e-04  3.2444e-03  7.3699e-04  3.7991e-04  0:06:09 1624
  2796  3.3594e-03  1.0998e-03  3.7837e-04  3.2745e-03  7.3355e-04  3.7799e-04  0:04:55 1623
  2797  3.3894e-03  1.1049e-03  3.7715e-04  3.3032e-03  7.3028e-04  3.7558e-04  0:03:56 1622
  2798  3.4174e-03  1.1092e-03  3.7784e-04  3.3298e-03  7.2708e-04  3.7328e-04  0:03:08 1621
  2799  3.4426e-03  1.0988e-03  3.7709e-04  3.3538e-03  7.2390e-04  3.7161e-04  0:02:31 1620
  2800  3.4667e-03  1.0911e-03  3.7772e-04  3.3768e-03  7.2088e-04  3.6950e-04  0:02:00 1619
  2801  3.4885e-03  1.0755e-03  3.7961e-04  3.3972e-03  7.1803e-04  3.6707e-04  0:01:36 1618
  2802  3.5102e-03  1.0686e-03  3.8011e-04  3.4176e-03  7.1530e-04  3.6490e-04  0:01:17 1617
  2803  3.5310e-03  1.0677e-03  3.8092e-04  3.4371e-03  7.1276e-04  3.6276e-04  0:01:02 1616

  iter  continuity  x-velocity  y-velocity      energy           k       omega     time/iter
  2804  3.5507e-03  1.0663e-03  3.8084e-04  3.4556e-03  7.1037e-04  3.6059e-04  0:00:49 1615
  2805  3.5683e-03  1.0628e-03  3.8212e-04  3.4721e-03  7.0810e-04  3.5832e-04  0:06:02 1614
  2806  3.5850e-03  1.0614e-03  3.8262e-04  3.4877e-03  7.0584e-04  3.5586e-04  0:04:50 1613
  2807  3.6000e-03  1.0571e-03  3.8114e-04  3.5017e-03  7.0362e-04  3.5350e-04  0:03:51 1612
  2808  3.6142e-03  1.0512e-03  3.8048e-04  3.5148e-03  7.0148e-04  3.5118e-04  0:03:05 1611
  2809  3.6276e-03  1.0551e-03  3.8176e-04  3.5273e-03  6.9948e-04  3.4898e-04  0:02:28 1610
  2810  3.6400e-03  1.0553e-03  3.8295e-04  3.5387e-03  6.9782e-04  3.4688e-04  0:01:58 1609
  2811  3.6520e-03  1.0675e-03  3.8229e-04  3.5498e-03  6.9655e-04  3.4471e-04  0:01:35 1608
  2812  3.6631e-03  1.0847e-03  3.8625e-04  3.5599e-03  6.9565e-04  3.4237e-04  0:01:16 1607
  2813  3.6718e-03  1.0684e-03  3.8805e-04  3.5677e-03  6.9503e-04  3.4003e-04  0:01:00 1606
  2814  3.6822e-03  1.0798e-03  3.8844e-04  3.5771e-03  6.9468e-04  3.3763e-04  0:00:48 1605

  iter  continuity  x-velocity  y-velocity      energy           k       omega     time/iter
  2815  3.6948e-03  1.1114e-03  3.9101e-04  3.5878e-03  6.9463e-04  3.3547e-04  0:00:39 1604
  2816  3.7019e-03  1.1217e-03  3.9451e-04  3.5936e-03  6.9479e-04  3.3327e-04  0:05:51 1603
  2817  3.6983e-03  1.0405e-03  3.9215e-04  3.5900e-03  6.9509e-04  3.3117e-04  0:04:41 1602
  2818  3.7001e-03  1.0211e-03  3.8958e-04  3.5918e-03  6.9550e-04  3.2915e-04  0:03:45 1601
  2819  3.7015e-03  1.0044e-03  3.8965e-04  3.5928e-03  6.9606e-04  3.2714e-04  0:03:00 1600
  2820  3.7026e-03  9.8996e-04  3.8870e-04  3.5934e-03  6.9698e-04  3.2529e-04  0:02:24 1599
  2821  3.7035e-03  9.7993e-04  3.8782e-04  3.5935e-03  6.9815e-04  3.2358e-04  0:01:55 1598
  2822  3.7042e-03  9.7258e-04  3.8824e-04  3.5934e-03  6.9944e-04  3.2178e-04  0:01:32 1597
  2823  3.7048e-03  9.6804e-04  3.8725e-04  3.5934e-03  7.0089e-04  3.2029e-04  0:01:13 1596
  2824  3.7052e-03  9.6489e-04  3.8600e-04  3.5932e-03  7.0237e-04  3.1907e-04  0:00:59 1595
  2825  3.7055e-03  9.6596e-04  3.8714e-04  3.5929e-03  7.0383e-04  3.1797e-04  0:00:47 1594

  iter  continuity  x-velocity  y-velocity      energy           k       omega     time/iter
  2826  3.7051e-03  9.7378e-04  3.8930e-04  3.5919e-03  7.0529e-04  3.1702e-04  0:05:56 1593
  2827  3.7039e-03  9.7249e-04  3.8895e-04  3.5901e-03  7.0675e-04  3.1603e-04  0:04:45 1592
  2828  3.7026e-03  9.6842e-04  3.8984e-04  3.5883e-03  7.0825e-04  3.1534e-04  0:03:48 1591
  2829  3.7028e-03  9.7582e-04  3.8978e-04  3.5880e-03  7.0973e-04  3.1505e-04  0:03:02 1590
  2830  3.7009e-03  9.8085e-04  3.9014e-04  3.5859e-03  7.1120e-04  3.1490e-04  0:02:25 1589
  2831  3.6991e-03  9.7450e-04  3.8989e-04  3.5839e-03  7.1276e-04  3.1513e-04  0:01:56 1588
  2832  3.6975e-03  9.7975e-04  3.8897e-04  3.5822e-03  7.1440e-04  3.1540e-04  0:01:33 1587
  2833  3.6975e-03  1.0015e-03  3.8952e-04  3.5821e-03  7.1600e-04  3.1549e-04  0:01:14 1586
  2834  3.6945e-03  1.0044e-03  3.9068e-04  3.5792e-03  7.1763e-04  3.1570e-04  0:00:59 1585
  2835  3.6918e-03  9.9219e-04  3.9274e-04  3.5767e-03  7.1919e-04  3.1588e-04  0:00:48 1584
  2836  3.6887e-03  9.8459e-04  3.9554e-04  3.5738e-03  7.2065e-04  3.1601e-04  0:05:55 1583

  iter  continuity  x-velocity  y-velocity      energy           k       omega     time/iter
  2837  3.6876e-03  9.9720e-04  3.9606e-04  3.5727e-03  7.2218e-04  3.1616e-04  0:04:43 1582
  2838  3.6853e-03  1.0027e-03  3.9860e-04  3.5705e-03  7.2363e-04  3.1628e-04  0:03:47 1581
  2839  3.6836e-03  9.9647e-04  3.9975e-04  3.5687e-03  7.2516e-04  3.1633e-04  0:03:01 1580
  2840  3.6858e-03  1.0239e-03  4.0336e-04  3.5704e-03  7.2676e-04  3.1677e-04  0:02:25 1579
  2841  3.6856e-03  1.0366e-03  4.0338e-04  3.5697e-03  7.2840e-04  3.1704e-04  0:01:56 1578
  2842  3.6816e-03  1.0306e-03  4.0219e-04  3.5658e-03  7.2988e-04  3.1708e-04  0:01:33 1577
  2843  3.6724e-03  9.6045e-04  3.9670e-04  3.5574e-03  7.3143e-04  3.1710e-04  0:01:14 1576
  2844  3.6670e-03  9.4296e-04  3.9169e-04  3.5527e-03  7.3279e-04  3.1769e-04  0:00:59 1575
  2845  3.6626e-03  9.3908e-04  3.8998e-04  3.5487e-03  7.3421e-04  3.1820e-04  0:00:47 1574
  2846  3.6588e-03  9.4657e-04  3.8902e-04  3.5449e-03  7.3563e-04  3.1851e-04  0:05:52 1573
  2847  3.6539e-03  9.4368e-04  3.8571e-04  3.5400e-03  7.3703e-04  3.1865e-04  0:04:42 1572

  iter  continuity  x-velocity  y-velocity      energy           k       omega     time/iter
  2848  3.6485e-03  9.4159e-04  3.8140e-04  3.5346e-03  7.3859e-04  3.1852e-04  0:03:45 1571
  2849  3.6423e-03  9.4904e-04  3.8093e-04  3.5285e-03  7.4000e-04  3.1815e-04  0:03:00 1570
  2850  3.6353e-03  9.5758e-04  3.8135e-04  3.5215e-03  7.4140e-04  3.1799e-04  0:02:24 1569
  2851  3.6269e-03  9.5709e-04  3.7844e-04  3.5132e-03  7.4268e-04  3.1803e-04  0:01:55 1568
  2852  3.6171e-03  9.4839e-04  3.7671e-04  3.5035e-03  7.4400e-04  3.1799e-04  0:01:32 1567
  2853  3.6072e-03  9.4739e-04  3.7646e-04  3.4935e-03  7.4531e-04  3.1792e-04  0:01:14 1566
  2854  3.5972e-03  9.4476e-04  3.7611e-04  3.4835e-03  7.4660e-04  3.1784e-04  0:00:59 1565
  2855  3.5869e-03  9.4791e-04  3.7796e-04  3.4730e-03  7.4786e-04  3.1773e-04  0:00:47 1564
  2856  3.5747e-03  9.5181e-04  3.7894e-04  3.4611e-03  7.4907e-04  3.1752e-04  0:05:50 1563
  2857  3.5628e-03  9.5445e-04  3.7994e-04  3.4491e-03  7.5030e-04  3.1716e-04  0:04:40 1562
  2858  3.5494e-03  9.5451e-04  3.8153e-04  3.4357e-03  7.5142e-04  3.1670e-04  0:03:44 1561

  iter  continuity  x-velocity  y-velocity      energy           k       omega     time/iter
  2859  3.5360e-03  9.5518e-04  3.8078e-04  3.4222e-03  7.5251e-04  3.1624e-04  0:02:59 1560
  2860  3.5225e-03  9.6498e-04  3.8039e-04  3.4085e-03  7.5357e-04  3.1605e-04  0:02:23 1559
  2861  3.5058e-03  9.6458e-04  3.8037e-04  3.3923e-03  7.5452e-04  3.1583e-04  0:01:54 1558
  2862  3.4901e-03  9.6818e-04  3.8077e-04  3.3766e-03  7.5535e-04  3.1552e-04  0:01:31 1557
  2863  3.4731e-03  9.6958e-04  3.7908e-04  3.3597e-03  7.5600e-04  3.1516e-04  0:01:13 1556
  2864  3.4562e-03  9.7690e-04  3.7969e-04  3.3431e-03  7.5654e-04  3.1466e-04  0:00:58 1555
  2865  3.4391e-03  9.8926e-04  3.7849e-04  3.3263e-03  7.5690e-04  3.1397e-04  0:00:47 1554
  2866  3.4216e-03  9.9257e-04  3.7600e-04  3.3089e-03  7.5717e-04  3.1318e-04  0:00:37 1553
  2867  3.4031e-03  9.8195e-04  3.7199e-04  3.2903e-03  7.5738e-04  3.1230e-04  0:05:40 1552
  2868  3.3868e-03  9.9037e-04  3.7387e-04  3.2739e-03  7.5749e-04  3.1126e-04  0:04:32 1551
  2869  3.3682e-03  1.0059e-03  3.7367e-04  3.2550e-03  7.5737e-04  3.1028e-04  0:03:37 1550

  iter  continuity  x-velocity  y-velocity      energy           k       omega     time/iter
  2870  3.3531e-03  1.0338e-03  3.7145e-04  3.2398e-03  7.5701e-04  3.0940e-04  0:02:54 1549
  2871  3.3295e-03  1.0356e-03  3.6813e-04  3.2166e-03  7.5639e-04  3.0840e-04  0:02:19 1548
  2872  3.3027e-03  9.5986e-04  3.6249e-04  3.1909e-03  7.5552e-04  3.0740e-04  0:01:51 1547
  2873  3.2800e-03  9.3732e-04  3.6158e-04  3.1691e-03  7.5442e-04  3.0633e-04  0:01:29 1546
  2874  3.2574e-03  9.1688e-04  3.5835e-04  3.1470e-03  7.5318e-04  3.0517e-04  0:01:11 1545
  2875  3.2357e-03  9.0683e-04  3.5367e-04  3.1256e-03  7.5174e-04  3.0383e-04  0:00:57 1544
  2876  3.2147e-03  9.0163e-04  3.5202e-04  3.1048e-03  7.5018e-04  3.0253e-04  0:00:45 1543
  2877  3.1943e-03  8.9608e-04  3.5184e-04  3.0843e-03  7.4850e-04  3.0119e-04  0:05:45 1542
  2878  3.1737e-03  8.8588e-04  3.4881e-04  3.0638e-03  7.4666e-04  2.9977e-04  0:04:36 1541
  2879  3.1539e-03  8.8462e-04  3.4794e-04  3.0441e-03  7.4475e-04  2.9852e-04  0:03:40 1540
  2880  3.1345e-03  8.8167e-04  3.4531e-04  3.0247e-03  7.4267e-04  2.9716e-04  0:02:56 1539

  iter  continuity  x-velocity  y-velocity      energy           k       omega     time/iter
  2881  3.1148e-03  8.8556e-04  3.4534e-04  3.0053e-03  7.4041e-04  2.9576e-04  0:02:21 1538
  2882  3.0963e-03  8.9233e-04  3.4534e-04  2.9869e-03  7.3799e-04  2.9442e-04  0:01:53 1537
  2883  3.0766e-03  8.8669e-04  3.4457e-04  2.9673e-03  7.3550e-04  2.9302e-04  0:01:30 1536
  2884  3.0581e-03  8.8105e-04  3.4481e-04  2.9492e-03  7.3301e-04  2.9153e-04  0:01:12 1535
  2885  3.0416e-03  8.7963e-04  3.4548e-04  2.9327e-03  7.3049e-04  2.9020e-04  0:00:58 1534
  2886  3.0234e-03  8.7576e-04  3.4379e-04  2.9150e-03  7.2796e-04  2.8881e-04  0:00:46 1533
  2887  3.0065e-03  8.8129e-04  3.4080e-04  2.8985e-03  7.2550e-04  2.8686e-04  0:05:43 1532
  2888  2.9898e-03  8.8808e-04  3.3942e-04  2.8822e-03  7.2307e-04  2.8472e-04  0:04:34 1531
  2889  2.9743e-03  8.9440e-04  3.3642e-04  2.8671e-03  7.2074e-04  2.8351e-04  0:03:39 1530
  2890  2.9593e-03  9.0806e-04  3.3624e-04  2.8526e-03  7.1850e-04  2.8202e-04  0:02:55 1529
  2891  2.9403e-03  8.9400e-04  3.3639e-04  2.8346e-03  7.1635e-04  2.8063e-04  0:02:20 1528

  iter  continuity  x-velocity  y-velocity      energy           k       omega     time/iter
  2892  2.9232e-03  8.8882e-04  3.3596e-04  2.8181e-03  7.1431e-04  2.7923e-04  0:01:52 1527
  2893  2.9093e-03  9.0296e-04  3.3599e-04  2.8047e-03  7.1231e-04  2.7789e-04  0:01:30 1526
  2894  2.8957e-03  9.2390e-04  3.3673e-04  2.7917e-03  7.1040e-04  2.7645e-04  0:01:12 1525
  2895  2.8812e-03  9.1471e-04  3.3669e-04  2.7776e-03  7.0869e-04  2.7500e-04  0:00:57 1524
  2896  2.8678e-03  9.1572e-04  3.3867e-04  2.7643e-03  7.0710e-04  2.7356e-04  0:00:46 1523
  2897  2.8568e-03  9.2159e-04  3.4205e-04  2.7528e-03  7.0554e-04  2.7209e-04  0:05:41 1522
  2898  2.8420e-03  9.3043e-04  3.4236e-04  2.7383e-03  7.0400e-04  2.7064e-04  0:04:33 1521
  2899  2.8189e-03  8.7799e-04  3.3523e-04  2.7167e-03  7.0246e-04  2.6939e-04  0:03:38 1520
  2900  2.8030e-03  8.8184e-04  3.3183e-04  2.7017e-03  7.0092e-04  2.6809e-04  0:02:54 1519
  2901  2.7879e-03  8.8762e-04  3.2734e-04  2.6873e-03  6.9945e-04  2.6660e-04  0:02:19 1518
  2902  2.7682e-03  8.5267e-04  3.2607e-04  2.6683e-03  6.9806e-04  2.6527e-04  0:01:51 1517

  iter  continuity  x-velocity  y-velocity      energy           k       omega     time/iter
  2903  2.7503e-03  8.2553e-04  3.2488e-04  2.6510e-03  6.9670e-04  2.6396e-04  0:01:29 1516
  2904  2.7345e-03  8.1962e-04  3.1928e-04  2.6358e-03  6.9533e-04  2.6257e-04  0:01:11 1515
  2905  2.7195e-03  8.1754e-04  3.1948e-04  2.6210e-03  6.9394e-04  2.6117e-04  0:00:57 1514
  2906  2.7060e-03  8.2277e-04  3.1853e-04  2.6078e-03  6.9252e-04  2.5948e-04  0:00:45 1513
  2907  2.6938e-03  8.2625e-04  3.1978e-04  2.5957e-03  6.9107e-04  2.5798e-04  0:05:39 1512
  2908  2.6813e-03  8.3598e-04  3.2090e-04  2.5837e-03  6.8969e-04  2.5707e-04  0:04:31 1511
  2909  2.6684e-03  8.4191e-04  3.1827e-04  2.5712e-03  6.8837e-04  2.5630e-04  0:03:37 1510
  2910  2.6558e-03  8.5108e-04  3.1399e-04  2.5589e-03  6.8722e-04  2.5523e-04  0:02:53 1509
  2911  2.6448e-03  8.5947e-04  3.1202e-04  2.5481e-03  6.8616e-04  2.5320e-04  0:02:18 1508
  2912  2.6328e-03  8.6581e-04  3.1570e-04  2.5371e-03  6.8510e-04  2.5116e-04  0:01:51 1507
  2913  2.6232e-03  8.7399e-04  3.1900e-04  2.5282e-03  6.8410e-04  2.4985e-04  0:01:28 1506

  iter  continuity  x-velocity  y-velocity      energy           k       omega     time/iter
  2914  2.6106e-03  8.6640e-04  3.1699e-04  2.5160e-03  6.8322e-04  2.4920e-04  0:01:11 1505
  2915  2.5995e-03  8.7151e-04  3.1639e-04  2.5053e-03  6.8246e-04  2.4849e-04  0:05:57 1504
  2916  2.5881e-03  8.7825e-04  3.2005e-04  2.4945e-03  6.8179e-04  2.4764e-04  0:04:46 1503
  2917  2.5795e-03  9.0007e-04  3.2194e-04  2.4867e-03  6.8121e-04  2.4648e-04  0:03:48 1502
  2918  2.5732e-03  9.3792e-04  3.2287e-04  2.4804e-03  6.8069e-04  2.4554e-04  0:03:03 1501
  2919  2.5628e-03  9.3112e-04  3.2275e-04  2.4705e-03  6.8019e-04  2.4489e-04  0:02:26 1500
  2920  2.5632e-03  9.7476e-04  3.2468e-04  2.4701e-03  6.7971e-04  2.4412e-04  0:01:57 1499
  2921  2.5528e-03  9.7706e-04  3.2465e-04  2.4600e-03  6.7920e-04  2.4320e-04  0:01:33 1498
  2922  2.5308e-03  8.9800e-04  3.1810e-04  2.4395e-03  6.7884e-04  2.4234e-04  0:01:15 1497
  2923  2.5170e-03  8.7616e-04  3.1436e-04  2.4269e-03  6.7855e-04  2.4157e-04  0:01:00 1496
  2924  2.5054e-03  8.6558e-04  3.1528e-04  2.4161e-03  6.7829e-04  2.4068e-04  0:00:48 1495

  iter  continuity  x-velocity  y-velocity      energy           k       omega     time/iter
  2925  2.4957e-03  8.6752e-04  3.1261e-04  2.4069e-03  6.7808e-04  2.3979e-04  0:05:37 1494
  2926  2.4886e-03  8.8013e-04  3.1042e-04  2.4003e-03  6.7793e-04  2.3935e-04  0:04:29 1493
  2927  2.4831e-03  8.9105e-04  3.0988e-04  2.3953e-03  6.7782e-04  2.3885e-04  0:03:35 1492
  2928  2.4765e-03  9.0079e-04  3.1318e-04  2.3893e-03  6.7777e-04  2.3841e-04  0:02:52 1491
  2929  2.4709e-03  9.0395e-04  3.1323e-04  2.3841e-03  6.7776e-04  2.3801e-04  0:02:18 1490
  2930  2.4668e-03  9.1289e-04  3.0913e-04  2.3804e-03  6.7780e-04  2.3763e-04  0:01:50 1489
  2931  2.4649e-03  9.2347e-04  3.0759e-04  2.3787e-03  6.7786e-04  2.3698e-04  0:01:28 1488
  2932  2.4640e-03  9.3972e-04  3.0755e-04  2.3785e-03  6.7803e-04  2.3683e-04  0:01:10 1487
  2933  2.4646e-03  9.5645e-04  3.1165e-04  2.3798e-03  6.7827e-04  2.3684e-04  0:00:56 1486
  2934  2.4632e-03  9.7083e-04  3.1237e-04  2.3791e-03  6.7859e-04  2.3681e-04  0:00:45 1485
  2935  2.4634e-03  9.7511e-04  3.1242e-04  2.3800e-03  6.7905e-04  2.3698e-04  0:05:33 1484

  iter  continuity  x-velocity  y-velocity      energy           k       omega     time/iter
  2936  2.4647e-03  9.7409e-04  3.0941e-04  2.3822e-03  6.7964e-04  2.3724e-04  0:04:26 1483
  2937  2.4703e-03  9.8871e-04  3.0860e-04  2.3885e-03  6.8038e-04  2.3686e-04  0:03:33 1482
  2938  2.4790e-03  1.0190e-03  3.1304e-04  2.3978e-03  6.8115e-04  2.3635e-04  0:02:50 1481
  2939  2.4888e-03  1.0663e-03  3.1527e-04  2.4078e-03  6.8192e-04  2.3669e-04  0:02:16 1480
  2940  2.4913e-03  1.0377e-03  3.1261e-04  2.4112e-03  6.8268e-04  2.3705e-04  0:01:49 1479
  2941  2.4993e-03  1.0349e-03  3.1170e-04  2.4194e-03  6.8345e-04  2.3749e-04  0:01:27 1478
  2942  2.5103e-03  1.0406e-03  3.1105e-04  2.4301e-03  6.8422e-04  2.3792e-04  0:01:09 1477
  2943  2.5064e-03  1.0067e-03  3.0733e-04  2.4276e-03  6.8497e-04  2.3827e-04  0:00:56 1476
  2944  2.5075e-03  9.5936e-04  3.0421e-04  2.4307e-03  6.8567e-04  2.3829e-04  0:00:44 1475
  2945  2.5143e-03  9.4810e-04  3.0319e-04  2.4389e-03  6.8640e-04  2.3846e-04  0:05:30 1474
  2946  2.5231e-03  9.4655e-04  3.0193e-04  2.4486e-03  6.8709e-04  2.3902e-04  0:04:24 1473

  iter  continuity  x-velocity  y-velocity      energy           k       omega     time/iter
  2947  2.5305e-03  9.4066e-04  2.9832e-04  2.4567e-03  6.8774e-04  2.3949e-04  0:03:31 1472
  2948  2.5385e-03  9.3170e-04  2.9262e-04  2.4651e-03  6.8839e-04  2.3989e-04  0:02:49 1471
  2949  2.5472e-03  9.2873e-04  2.9174e-04  2.4742e-03  6.8901e-04  2.4034e-04  0:02:15 1470
  2950  2.5575e-03  9.4413e-04  2.9070e-04  2.4850e-03  6.8967e-04  2.4074e-04  0:01:48 1469
  2951  2.5694e-03  9.6343e-04  2.9126e-04  2.4972e-03  6.9036e-04  2.4095e-04  0:01:26 1468
  2952  2.5814e-03  9.8069e-04  2.9159e-04  2.5100e-03  6.9114e-04  2.4077e-04  0:01:09 1467
  2953  2.5931e-03  9.8738e-04  2.9349e-04  2.5222e-03  6.9198e-04  2.4153e-04  0:00:55 1466
  2954  2.6027e-03  9.7829e-04  2.9569e-04  2.5323e-03  6.9292e-04  2.4218e-04  0:00:44 1465
  2955  2.6141e-03  9.7858e-04  2.9807e-04  2.5442e-03  6.9396e-04  2.4274e-04  0:05:28 1464
  2956  2.6254e-03  9.8555e-04  2.9846e-04  2.5564e-03  6.9510e-04  2.4309e-04  0:04:22 1463
  2957  2.6376e-03  9.8481e-04  2.9419e-04  2.5694e-03  6.9626e-04  2.4337e-04  0:03:30 1462

  iter  continuity  x-velocity  y-velocity      energy           k       omega     time/iter
  2958  2.6506e-03  9.9194e-04  2.9060e-04  2.5830e-03  6.9748e-04  2.4376e-04  0:02:48 1461
  2959  2.6634e-03  1.0071e-03  2.9289e-04  2.5961e-03  6.9865e-04  2.4406e-04  0:02:14 1460
  2960  2.6758e-03  1.0074e-03  2.9738e-04  2.6092e-03  6.9978e-04  2.4433e-04  0:01:47 1459
  2961  2.6915e-03  1.0217e-03  2.9952e-04  2.6255e-03  7.0087e-04  2.4434e-04  0:01:26 1458
  2962  2.7059e-03  1.0425e-03  3.0090e-04  2.6399e-03  7.0187e-04  2.4437e-04  0:01:08 1457
  2963  2.7211e-03  1.0291e-03  2.9855e-04  2.6547e-03  7.0279e-04  2.4479e-04  0:00:55 1456
  2964  2.7379e-03  1.0722e-03  3.0022e-04  2.6714e-03  7.0360e-04  2.4500e-04  0:00:44 1455
  2965  2.7397e-03  1.0026e-03  2.9705e-04  2.6746e-03  7.0428e-04  2.4503e-04  0:00:35 1454
  2966  2.7466e-03  9.7481e-04  2.9347e-04  2.6829e-03  7.0482e-04  2.4515e-04  0:05:19 1453
  2967  2.7538e-03  9.6184e-04  2.8972e-04  2.6912e-03  7.0524e-04  2.4547e-04  0:04:15 1452
  2968  2.7607e-03  9.5692e-04  2.8597e-04  2.6988e-03  7.0556e-04  2.4561e-04  0:03:24 1451

  iter  continuity  x-velocity  y-velocity      energy           k       omega     time/iter
  2969  2.7680e-03  9.5788e-04  2.8249e-04  2.7066e-03  7.0582e-04  2.4542e-04  0:02:43 1450
  2970  2.7756e-03  9.6687e-04  2.8202e-04  2.7146e-03  7.0601e-04  2.4423e-04  0:02:10 1449
  2971  2.7836e-03  9.8408e-04  2.8300e-04  2.7230e-03  7.0613e-04  2.4374e-04  0:01:44 1448
  2972  2.7890e-03  9.8334e-04  2.8471e-04  2.7289e-03  7.0614e-04  2.4387e-04  0:01:23 1447
  2973  2.7948e-03  9.8339e-04  2.8658e-04  2.7351e-03  7.0611e-04  2.4399e-04  0:01:06 1446
  2974  2.8012e-03  9.9163e-04  2.8494e-04  2.7411e-03  7.0607e-04  2.4381e-04  0:00:53 1445
  2975  2.8068e-03  1.0075e-03  2.7832e-04  2.7464e-03  7.0605e-04  2.4366e-04  0:05:31 1444
  2976  2.8063e-03  9.9670e-04  2.7945e-04  2.7463e-03  7.0607e-04  2.4348e-04  0:04:25 1443
  2977  2.8033e-03  9.5628e-04  2.8115e-04  2.7445e-03  7.0609e-04  2.4332e-04  0:03:32 1442
  2978  2.8034e-03  9.5032e-04  2.8141e-04  2.7455e-03  7.0611e-04  2.4306e-04  0:02:49 1441
  2979  2.8014e-03  9.4174e-04  2.7964e-04  2.7443e-03  7.0607e-04  2.4269e-04  0:02:15 1440

  iter  continuity  x-velocity  y-velocity      energy           k       omega     time/iter
  2980  2.8003e-03  9.4580e-04  2.7801e-04  2.7439e-03  7.0598e-04  2.4199e-04  0:01:48 1439
  2981  2.7989e-03  9.5172e-04  2.7489e-04  2.7432e-03  7.0583e-04  2.4199e-04  0:01:26 1438
  2982  2.7985e-03  9.5233e-04  2.7462e-04  2.7434e-03  7.0557e-04  2.4200e-04  0:01:09 1437
  2983  2.7985e-03  9.6618e-04  2.7667e-04  2.7436e-03  7.0531e-04  2.4182e-04  0:00:55 1436
  2984  2.7976e-03  9.7171e-04  2.8021e-04  2.7426e-03  7.0497e-04  2.4160e-04  0:00:44 1435
  2985  2.7974e-03  9.6711e-04  2.7883e-04  2.7422e-03  7.0455e-04  2.4132e-04  0:00:35 1434
  2986  2.7974e-03  9.8412e-04  2.7769e-04  2.7414e-03  7.0406e-04  2.4112e-04  0:05:15 1433
  2987  2.7941e-03  9.9356e-04  2.7713e-04  2.7379e-03  7.0353e-04  2.4078e-04  0:04:12 1432
  2988  2.7767e-03  9.0685e-04  2.7545e-04  2.7219e-03  7.0300e-04  2.4051e-04  0:03:21 1431
  2989  2.7659e-03  8.7903e-04  2.7414e-04  2.7120e-03  7.0245e-04  2.4023e-04  0:02:41 1430
  2990  2.7561e-03  8.6862e-04  2.7477e-04  2.7028e-03  7.0186e-04  2.3982e-04  0:02:09 1429

  iter  continuity  x-velocity  y-velocity      energy           k       omega     time/iter
  2991  2.7464e-03  8.6073e-04  2.7257e-04  2.6936e-03  7.0122e-04  2.3905e-04  0:01:43 1428
  2992  2.7370e-03  8.5633e-04  2.6938e-04  2.6845e-03  7.0060e-04  2.3867e-04  0:01:22 1427
  2993  2.7267e-03  8.5442e-04  2.6755e-04  2.6744e-03  6.9989e-04  2.3850e-04  0:01:06 1426
  2994  2.7154e-03  8.5338e-04  2.6737e-04  2.6633e-03  6.9920e-04  2.3831e-04  0:00:53 1425
  2995  2.7043e-03  8.5937e-04  2.6528e-04  2.6523e-03  6.9854e-04  2.3794e-04  0:00:42 1424
  2996  2.6921e-03  8.6383e-04  2.6583e-04  2.6403e-03  6.9791e-04  2.3745e-04  0:05:18 1423
  2997  2.6792e-03  8.6695e-04  2.6775e-04  2.6275e-03  6.9728e-04  2.3695e-04  0:04:14 1422
  2998  2.6672e-03  8.7322e-04  2.6806e-04  2.6157e-03  6.9659e-04  2.3644e-04  0:03:23 1421
  2999  2.6551e-03  8.7562e-04  2.6760e-04  2.6038e-03  6.9584e-04  2.3594e-04  0:02:43 1420
  3000  2.6397e-03  8.6981e-04  2.6812e-04  2.5888e-03  6.9499e-04  2.3558e-04  0:02:10 1419
  3001  2.6246e-03  8.6424e-04  2.6464e-04  2.5739e-03  6.9412e-04  2.3515e-04  0:01:44 1418

  iter  continuity  x-velocity  y-velocity      energy           k       omega     time/iter
  3002  2.6094e-03  8.6524e-04  2.6358e-04  2.5591e-03  6.9326e-04  2.3462e-04  0:01:23 1417
  3003  2.5949e-03  8.7180e-04  2.6473e-04  2.5451e-03  6.9238e-04  2.3359e-04  0:01:06 1416
  3004  2.5800e-03  8.9418e-04  2.6627e-04  2.5306e-03  6.9142e-04  2.3258e-04  0:00:53 1415
  3005  2.5609e-03  8.9464e-04  2.6395e-04  2.5119e-03  6.9042e-04  2.3177e-04  0:00:42 1414
  3006  2.5430e-03  8.8579e-04  2.5978e-04  2.4943e-03  6.8937e-04  2.3110e-04  0:05:17 1413
  3007  2.5279e-03  9.1000e-04  2.5993e-04  2.4792e-03  6.8824e-04  2.3061e-04  0:04:13 1412
  3008  2.5079e-03  9.1615e-04  2.6472e-04  2.4591e-03  6.8704e-04  2.3012e-04  0:03:22 1411
  3009  2.4904e-03  9.0109e-04  2.6760e-04  2.4413e-03  6.8580e-04  2.2956e-04  0:02:42 1410
  3010  2.4776e-03  9.3720e-04  2.6973e-04  2.4273e-03  6.8450e-04  2.2870e-04  0:02:09 1409
  3011  2.4612e-03  9.6151e-04  2.6712e-04  2.4099e-03  6.8320e-04  2.2787e-04  0:01:43 1408
  3012  2.4310e-03  9.1177e-04  2.6213e-04  2.3802e-03  6.8188e-04  2.2702e-04  0:01:23 1407

  iter  continuity  x-velocity  y-velocity      energy           k       omega     time/iter
  3013  2.3992e-03  8.4801e-04  2.5767e-04  2.3498e-03  6.8051e-04  2.2626e-04  0:01:06 1406
  3014  2.3697e-03  7.9102e-04  2.5584e-04  2.3217e-03  6.7909e-04  2.2550e-04  0:00:53 1405
  3015  2.3439e-03  7.6499e-04  2.5454e-04  2.2966e-03  6.7763e-04  2.2469e-04  0:00:42 1404
  3016  2.3188e-03  7.5711e-04  2.5089e-04  2.2718e-03  6.7624e-04  2.2361e-04  0:05:14 1403
  3017  2.2933e-03  7.5180e-04  2.4739e-04  2.2463e-03  6.7487e-04  2.2288e-04  0:04:11 1402
  3018  2.2682e-03  7.5135e-04  2.4437e-04  2.2212e-03  6.7349e-04  2.2213e-04  0:03:21 1401
  3019  2.2432e-03  7.4610e-04  2.4516e-04  2.1963e-03  6.7209e-04  2.2144e-04  0:02:41 1400
  3020  2.2187e-03  7.3987e-04  2.4470e-04  2.1718e-03  6.7064e-04  2.2064e-04  0:02:08 1399
  3021  2.1950e-03  7.3815e-04  2.4406e-04  2.1479e-03  6.6914e-04  2.1966e-04  0:01:43 1398
  3022  2.1718e-03  7.4022e-04  2.4323e-04  2.1245e-03  6.6759e-04  2.1868e-04  0:01:22 1397
  3023  2.1493e-03  7.4563e-04  2.4304e-04  2.1018e-03  6.6600e-04  2.1751e-04  0:01:06 1396

  iter  continuity  x-velocity  y-velocity      energy           k       omega     time/iter
  3024  2.1267e-03  7.4726e-04  2.4360e-04  2.0793e-03  6.6439e-04  2.1660e-04  0:00:52 1395
  3025  2.1047e-03  7.4463e-04  2.4355e-04  2.0573e-03  6.6278e-04  2.1584e-04  0:00:42 1394
  3026  2.0829e-03  7.4602e-04  2.4236e-04  2.0352e-03  6.6119e-04  2.1499e-04  0:05:12 1393
  3027  2.0600e-03  7.4379e-04  2.4029e-04  2.0121e-03  6.5959e-04  2.1409e-04  0:04:10 1392
  3028  2.0379e-03  7.4382e-04  2.4150e-04  1.9899e-03  6.5798e-04  2.1318e-04  0:03:19 1391
  3029  2.0162e-03  7.5318e-04  2.4268e-04  1.9684e-03  6.5640e-04  2.1237e-04  0:02:39 1390
  3030  1.9954e-03  7.5912e-04  2.4159e-04  1.9476e-03  6.5478e-04  2.1158e-04  0:02:07 1389
  3031  1.9743e-03  7.6791e-04  2.4132e-04  1.9266e-03  6.5311e-04  2.1092e-04  0:01:42 1388
  3032  1.9536e-03  7.6876e-04  2.4150e-04  1.9061e-03  6.5140e-04  2.1040e-04  0:01:21 1387
  3033  1.9372e-03  7.8932e-04  2.4395e-04  1.8895e-03  6.4969e-04  2.0990e-04  0:01:05 1386
  3034  1.9168e-03  7.7673e-04  2.4253e-04  1.8690e-03  6.4797e-04  2.0944e-04  0:00:52 1385

  iter  continuity  x-velocity  y-velocity      energy           k       omega     time/iter
  3035  1.9045e-03  7.8456e-04  2.4287e-04  1.8561e-03  6.4623e-04  2.0867e-04  0:00:42 1384
  3036  1.8924e-03  8.1081e-04  2.4405e-04  1.8429e-03  6.4448e-04  2.0777e-04  0:00:33 1383
  3037  1.8824e-03  8.2661e-04  2.4493e-04  1.8326e-03  6.4271e-04  2.0673e-04  0:05:03 1382
  3038  1.8559e-03  7.5206e-04  2.4244e-04  1.8073e-03  6.4091e-04  2.0605e-04  0:04:02 1381
  3039  1.8410e-03  7.2214e-04  2.3740e-04  1.7932e-03  6.3906e-04  2.0534e-04  0:03:14 1380
  3040  1.8275e-03  7.1186e-04  2.3306e-04  1.7803e-03  6.3719e-04  2.0453e-04  0:02:35 1379
  3041  1.8168e-03  7.0947e-04  2.3060e-04  1.7698e-03  6.3535e-04  2.0391e-04  0:02:04 1378
  3042  1.8085e-03  7.1760e-04  2.3182e-04  1.7616e-03  6.3345e-04  2.0313e-04  0:01:39 1377
  3043  1.8021e-03  7.2689e-04  2.3137e-04  1.7551e-03  6.3150e-04  2.0227e-04  0:01:19 1376
  3044  1.7924e-03  7.1510e-04  2.2949e-04  1.7451e-03  6.2956e-04  2.0138e-04  0:05:38 1375
  3045  1.7853e-03  7.1001e-04  2.2963e-04  1.7377e-03  6.2757e-04  2.0035e-04  0:04:30 1374

  iter  continuity  x-velocity  y-velocity      energy           k       omega     time/iter
  3046  1.7780e-03  7.0348e-04  2.2926e-04  1.7300e-03  6.2551e-04  1.9932e-04  0:03:36 1373
  3047  1.7724e-03  7.1532e-04  2.2725e-04  1.7240e-03  6.2343e-04  1.9828e-04  0:02:53 1372
  3048  1.7674e-03  7.2657e-04  2.2555e-04  1.7186e-03  6.2132e-04  1.9722e-04  0:02:18 1371
  3049  1.7594e-03  7.2327e-04  2.2525e-04  1.7106e-03  6.1920e-04  1.9616e-04  0:01:50 1370
  3050  1.7453e-03  6.8608e-04  2.2400e-04  1.6968e-03  6.1706e-04  1.9515e-04  0:01:28 1369
  3051  1.7355e-03  6.7054e-04  2.2113e-04  1.6875e-03  6.1489e-04  1.9419e-04  0:01:11 1368
  3052  1.7251e-03  6.6135e-04  2.2239e-04  1.6775e-03  6.1273e-04  1.9321e-04  0:00:56 1367
  3053  1.7171e-03  6.6210e-04  2.2358e-04  1.6697e-03  6.1056e-04  1.9220e-04  0:00:45 1366
  3054  1.7100e-03  6.6204e-04  2.2282e-04  1.6625e-03  6.0838e-04  1.9127e-04  0:00:36 1365
  3055  1.7034e-03  6.7269e-04  2.2219e-04  1.6561e-03  6.0623e-04  1.9047e-04  0:05:02 1364
  3056  1.6961e-03  6.7958e-04  2.2120e-04  1.6493e-03  6.0415e-04  1.8964e-04  0:04:01 1363

  iter  continuity  x-velocity  y-velocity      energy           k       omega     time/iter
  3057  1.6919e-03  6.9022e-04  2.2310e-04  1.6454e-03  6.0208e-04  1.8923e-04  0:03:13 1362
  3058  1.6902e-03  7.0563e-04  2.2368e-04  1.6438e-03  5.9998e-04  1.8888e-04  0:02:34 1361
  3059  1.6877e-03  7.0597e-04  2.2633e-04  1.6416e-03  5.9785e-04  1.8848e-04  0:02:03 1360
  3060  1.6883e-03  7.1110e-04  2.2966e-04  1.6423e-03  5.9576e-04  1.8810e-04  0:01:38 1359
  3061  1.6920e-03  7.2189e-04  2.3254e-04  1.6458e-03  5.9374e-04  1.8759e-04  0:01:19 1358
  3062  1.6950e-03  7.0361e-04  2.3191e-04  1.6487e-03  5.9184e-04  1.8717e-04  0:01:03 1357
  3063  1.7086e-03  7.2898e-04  2.3140e-04  1.6614e-03  5.9003e-04  1.8676e-04  0:00:50 1356
  3064  1.7198e-03  7.5357e-04  2.2892e-04  1.6719e-03  5.8831e-04  1.8622e-04  0:00:40 1355
  3065  1.7298e-03  7.6377e-04  2.2799e-04  1.6820e-03  5.8670e-04  1.8564e-04  0:05:03 1354
  3066  1.7298e-03  6.8626e-04  2.2819e-04  1.6833e-03  5.8515e-04  1.8483e-04  0:04:02 1353
  3067  1.7388e-03  6.6340e-04  2.2902e-04  1.6933e-03  5.8365e-04  1.8402e-04  0:03:14 1352

  iter  continuity  x-velocity  y-velocity      energy           k       omega     time/iter
  3068  1.7498e-03  6.4937e-04  2.2889e-04  1.7051e-03  5.8225e-04  1.8351e-04  0:02:35 1351
  3069  1.7625e-03  6.4026e-04  2.2816e-04  1.7181e-03  5.8098e-04  1.8301e-04  0:02:04 1350
  3070  1.7759e-03  6.3463e-04  2.2686e-04  1.7316e-03  5.8000e-04  1.8250e-04  0:01:39 1349
  3071  1.7901e-03  6.3738e-04  2.2460e-04  1.7459e-03  5.7935e-04  1.8188e-04  0:01:19 1348
  3072  1.8033e-03  6.3476e-04  2.2208e-04  1.7594e-03  5.7895e-04  1.8127e-04  0:01:03 1347
  3073  1.8165e-03  6.3218e-04  2.2076e-04  1.7728e-03  5.7874e-04  1.8072e-04  0:00:51 1346
  3074  1.8297e-03  6.2726e-04  2.2069e-04  1.7862e-03  5.7867e-04  1.8026e-04  0:00:40 1345
  3075  1.8431e-03  6.3232e-04  2.2136e-04  1.7998e-03  5.7874e-04  1.7984e-04  0:05:01 1344
  3076  1.8556e-03  6.3592e-04  2.2132e-04  1.8123e-03  5.7885e-04  1.7934e-04  0:04:01 1343
  3077  1.8662e-03  6.3791e-04  2.2101e-04  1.8232e-03  5.7903e-04  1.7876e-04  0:03:12 1342
  3078  1.8768e-03  6.4551e-04  2.2228e-04  1.8340e-03  5.7935e-04  1.7819e-04  0:02:34 1341

  iter  continuity  x-velocity  y-velocity      energy           k       omega     time/iter
  3079  1.8885e-03  6.6044e-04  2.2358e-04  1.8459e-03  5.7969e-04  1.7749e-04  0:02:03 1340
  3080  1.8983e-03  6.6387e-04  2.2214e-04  1.8558e-03  5.8010e-04  1.7734e-04  0:01:38 1339
  3081  1.9086e-03  6.7114e-04  2.2264e-04  1.8662e-03  5.8055e-04  1.7720e-04  0:01:19 1338
  3082  1.9203e-03  6.8733e-04  2.2583e-04  1.8779e-03  5.8100e-04  1.7711e-04  0:01:03 1337
  3083  1.9285e-03  6.8167e-04  2.2512e-04  1.8863e-03  5.8147e-04  1.7690e-04  0:00:50 1336
  3084  1.9399e-03  6.9274e-04  2.2532e-04  1.8976e-03  5.8196e-04  1.7678e-04  0:00:40 1335
  3085  1.9526e-03  7.2032e-04  2.2739e-04  1.9103e-03  5.8248e-04  1.7674e-04  0:04:59 1334
  3086  1.9596e-03  7.1732e-04  2.2839e-04  1.9175e-03  5.8301e-04  1.7680e-04  0:03:59 1333
  3087  1.9672e-03  6.9654e-04  2.3038e-04  1.9257e-03  5.8354e-04  1.7688e-04  0:03:11 1332
  3088  1.9757e-03  6.8515e-04  2.2941e-04  1.9346e-03  5.8406e-04  1.7701e-04  0:02:33 1331
  3089  1.9830e-03  6.6783e-04  2.2873e-04  1.9425e-03  5.8456e-04  1.7714e-04  0:02:02 1330

  iter  continuity  x-velocity  y-velocity      energy           k       omega     time/iter
  3090  1.9960e-03  6.7758e-04  2.2830e-04  1.9555e-03  5.8505e-04  1.7721e-04  0:01:38 1329
  3091  2.0083e-03  6.8201e-04  2.3066e-04  1.9675e-03  5.8555e-04  1.7731e-04  0:01:18 1328
  3092  2.0239e-03  6.9864e-04  2.3454e-04  1.9823e-03  5.8604e-04  1.7741e-04  0:01:02 1327
  3093  2.0401e-03  7.2689e-04  2.3718e-04  1.9980e-03  5.8643e-04  1.7722e-04  0:00:50 1326
  3094  2.0500e-03  7.2678e-04  2.3664e-04  2.0082e-03  5.8676e-04  1.7723e-04  0:00:40 1325
  3095  2.0545e-03  6.5686e-04  2.3606e-04  2.0137e-03  5.8699e-04  1.7731e-04  0:00:32 1324
  3096  2.0641e-03  6.4395e-04  2.3413e-04  2.0240e-03  5.8712e-04  1.7731e-04  0:04:50 1323
  3097  2.0750e-03  6.4059e-04  2.3325e-04  2.0354e-03  5.8718e-04  1.7721e-04  0:03:52 1322
  3098  2.0857e-03  6.3765e-04  2.3239e-04  2.0464e-03  5.8715e-04  1.7692e-04  0:03:05 1321
  3099  2.0960e-03  6.3064e-04  2.3146e-04  2.0568e-03  5.8702e-04  1.7660e-04  0:02:28 1320
  3100  2.1064e-03  6.2218e-04  2.3085e-04  2.0671e-03  5.8674e-04  1.7605e-04  0:01:58 1319

  iter  continuity  x-velocity  y-velocity      energy           k       omega     time/iter
  3101  2.1158e-03  6.1628e-04  2.2911e-04  2.0763e-03  5.8635e-04  1.7566e-04  0:01:35 1318
  3102  2.1242e-03  6.1886e-04  2.2785e-04  2.0846e-03  5.8581e-04  1.7544e-04  0:01:16 1317
  3103  2.1320e-03  6.2590e-04  2.2724e-04  2.0923e-03  5.8516e-04  1.7517e-04  0:01:01 1316
  3104  2.1384e-03  6.2784e-04  2.2710e-04  2.0987e-03  5.8439e-04  1.7490e-04  0:00:48 1315
  3105  2.1431e-03  6.2529e-04  2.2895e-04  2.1034e-03  5.8355e-04  1.7458e-04  0:00:39 1314
  3106  2.1471e-03  6.3002e-04  2.3015e-04  2.1073e-03  5.8261e-04  1.7429e-04  0:00:31 1313
  3107  2.1502e-03  6.3815e-04  2.3113e-04  2.1104e-03  5.8157e-04  1.7401e-04  0:04:47 1312
  3108  2.1520e-03  6.4437e-04  2.3162e-04  2.1121e-03  5.8040e-04  1.7369e-04  0:03:50 1311
  3109  2.1523e-03  6.4623e-04  2.3111e-04  2.1124e-03  5.7913e-04  1.7346e-04  0:03:03 1310
  3110  2.1516e-03  6.4466e-04  2.2957e-04  2.1118e-03  5.7781e-04  1.7325e-04  0:02:27 1309
  3111  2.1503e-03  6.5695e-04  2.2881e-04  2.1106e-03  5.7641e-04  1.7308e-04  0:01:57 1308

  iter  continuity  x-velocity  y-velocity      energy           k       omega     time/iter
  3112  2.1475e-03  6.6487e-04  2.2967e-04  2.1081e-03  5.7495e-04  1.7305e-04  0:01:34 1307
  3113  2.1447e-03  6.7384e-04  2.3089e-04  2.1054e-03  5.7341e-04  1.7310e-04  0:01:15 1306
  3114  2.1419e-03  6.8745e-04  2.3284e-04  2.1027e-03  5.7176e-04  1.7307e-04  0:01:00 1305
  3115  2.1385e-03  7.0056e-04  2.3352e-04  2.0994e-03  5.7004e-04  1.7296e-04  0:00:48 1304
  3116  2.1357e-03  7.0447e-04  2.3616e-04  2.0965e-03  5.6824e-04  1.7273e-04  0:00:38 1303
  3117  2.1336e-03  7.2430e-04  2.3594e-04  2.0945e-03  5.6632e-04  1.7226e-04  0:04:51 1302
  3118  2.1298e-03  7.3059e-04  2.3420e-04  2.0907e-03  5.6434e-04  1.7212e-04  0:03:53 1301
  3119  2.1286e-03  7.3821e-04  2.3604e-04  2.0892e-03  5.6232e-04  1.7203e-04  0:03:06 1300
  3120  2.1289e-03  7.5569e-04  2.3886e-04  2.0891e-03  5.6026e-04  1.7193e-04  0:02:29 1299
  3121  2.1285e-03  7.6726e-04  2.3837e-04  2.0878e-03  5.5818e-04  1.7167e-04  0:01:59 1298
  3122  2.1333e-03  8.0752e-04  2.3867e-04  2.0917e-03  5.5604e-04  1.7138e-04  0:01:35 1297

  iter  continuity  x-velocity  y-velocity      energy           k       omega     time/iter
[...]
  3969  1.5062e-03  3.7789e-04  1.6807e-04  1.4719e-03  2.4139e-04  1.1480e-04  0:01:23  450

  iter  continuity  x-velocity  y-velocity      energy           k       omega     time/iter
  3970  1.5134e-03  3.8352e-04  1.6630e-04  1.4794e-03  2.4169e-04  1.1478e-04  0:01:06  449
  3971  1.5218e-03  3.9669e-04  1.6424e-04  1.4881e-03  2.4205e-04  1.1475e-04  0:00:53  448
  3972  1.5303e-03  4.0372e-04  1.6368e-04  1.4968e-03  2.4245e-04  1.1471e-04  0:00:42  447
  3973  1.5392e-03  4.0757e-04  1.6328e-04  1.5060e-03  2.4291e-04  1.1466e-04  0:00:34  446
  3974  1.5487e-03  4.2067e-04  1.6289e-04  1.5157e-03  2.4334e-04  1.1461e-04  0:00:27  445
  3975  1.5576e-03  4.2157e-04  1.6238e-04  1.5248e-03  2.4373e-04  1.1455e-04  0:00:21  444
  3976  1.5661e-03  4.0281e-04  1.6125e-04  1.5334e-03  2.4410e-04  1.1443e-04  0:01:46  443
  3977  1.5753e-03  4.0104e-04  1.5962e-04  1.5428e-03  2.4445e-04  1.1427e-04  0:01:24  442
  3978  1.5847e-03  4.0629e-04  1.5850e-04  1.5524e-03  2.4476e-04  1.1407e-04  0:01:07  441
  3979  1.5934e-03  4.0029e-04  1.5780e-04  1.5613e-03  2.4507e-04  1.1381e-04  0:00:54  440
  3980  1.6014e-03  3.8759e-04  1.5711e-04  1.5695e-03  2.4540e-04  1.1350e-04  0:00:43  439

  iter  continuity  x-velocity  y-velocity      energy           k       omega     time/iter
  3981  1.6098e-03  3.8046e-04  1.5631e-04  1.5781e-03  2.4570e-04  1.1314e-04  0:00:34  438
  3982  1.6183e-03  3.7550e-04  1.5522e-04  1.5868e-03  2.4601e-04  1.1278e-04  0:00:27  437
  3983  1.6270e-03  3.7519e-04  1.5461e-04  1.5958e-03  2.4630e-04  1.1243e-04  0:00:22  436
  3984  1.6362e-03  3.7985e-04  1.5419e-04  1.6051e-03  2.4659e-04  1.1209e-04  0:00:17  435
  3985  1.6455e-03  3.8126e-04  1.5386e-04  1.6146e-03  2.4687e-04  1.1179e-04  0:01:41  434
  3986  1.6547e-03  3.7284e-04  1.5398e-04  1.6240e-03  2.4714e-04  1.1151e-04  0:01:20  433
  3987  1.6644e-03  3.6839e-04  1.5382e-04  1.6340e-03  2.4737e-04  1.1124e-04  0:01:04  432
  3988  1.6750e-03  3.6877e-04  1.5342e-04  1.6447e-03  2.4761e-04  1.1098e-04  0:00:51  431
  3989  1.6862e-03  3.7193e-04  1.5313e-04  1.6561e-03  2.4782e-04  1.1071e-04  0:00:41  430
  3990  1.6979e-03  3.7560e-04  1.5258e-04  1.6679e-03  2.4803e-04  1.1041e-04  0:00:33  429
  3991  1.7098e-03  3.7787e-04  1.5183e-04  1.6800e-03  2.4821e-04  1.1012e-04  0:00:26  428

  iter  continuity  x-velocity  y-velocity      energy           k       omega     time/iter
  3992  1.7223e-03  3.8203e-04  1.5199e-04  1.6925e-03  2.4837e-04  1.0987e-04  0:00:21  427
  3993  1.7352e-03  3.8651e-04  1.5216e-04  1.7055e-03  2.4857e-04  1.0965e-04  0:00:17  426
  3994  1.7476e-03  3.8111e-04  1.5245e-04  1.7180e-03  2.4876e-04  1.0942e-04  0:01:38  425
  3995  1.7604e-03  3.7756e-04  1.5258e-04  1.7309e-03  2.4897e-04  1.0914e-04  0:01:18  424
  3996  1.7735e-03  3.7661e-04  1.5319e-04  1.7441e-03  2.4916e-04  1.0882e-04  0:01:03  423
  3997  1.7868e-03  3.7631e-04  1.5343e-04  1.7573e-03  2.4932e-04  1.0848e-04  0:00:50  422
  3998  1.8002e-03  3.7918e-04  1.5336e-04  1.7708e-03  2.4944e-04  1.0809e-04  0:00:40  421
  3999  1.8134e-03  3.7704e-04  1.5309e-04  1.7840e-03  2.4951e-04  1.0767e-04  0:00:32  420
  4000  1.8263e-03  3.7127e-04  1.5248e-04  1.7970e-03  2.4955e-04  1.0723e-04  0:00:25  419
  4001  1.8395e-03  3.7104e-04  1.5196e-04  1.8103e-03  2.4952e-04  1.0674e-04  0:00:20  418
  4002  1.8528e-03  3.7323e-04  1.5138e-04  1.8236e-03  2.4944e-04  1.0623e-04  0:00:16  417

  iter  continuity  x-velocity  y-velocity      energy           k       omega     time/iter
  4003  1.8657e-03  3.6590e-04  1.5071e-04  1.8366e-03  2.4935e-04  1.0568e-04  0:00:13  416
  4004  1.8789e-03  3.6525e-04  1.4956e-04  1.8499e-03  2.4919e-04  1.0510e-04  0:01:33  415
  4005  1.8920e-03  3.6620e-04  1.4874e-04  1.8630e-03  2.4901e-04  1.0453e-04  0:01:14  414
  4006  1.9050e-03  3.6910e-04  1.4769e-04  1.8760e-03  2.4879e-04  1.0396e-04  0:00:59  413
  4007  1.9176e-03  3.7068e-04  1.4661e-04  1.8887e-03  2.4852e-04  1.0339e-04  0:00:47  412
  4008  1.9304e-03  3.7719e-04  1.4540e-04  1.9016e-03  2.4817e-04  1.0284e-04  0:00:38  411
  4009  1.9431e-03  3.8542e-04  1.4421e-04  1.9143e-03  2.4778e-04  1.0232e-04  0:00:30  410
  4010  1.9555e-03  3.9040e-04  1.4311e-04  1.9268e-03  2.4734e-04  1.0181e-04  0:00:24  409
  4011  1.9676e-03  3.9051e-04  1.4215e-04  1.9389e-03  2.4683e-04  1.0131e-04  0:00:19  408
  4012  1.9791e-03  3.7980e-04  1.4153e-04  1.9504e-03  2.4627e-04  1.0082e-04  0:00:15  407
  4013  1.9908e-03  3.7563e-04  1.4054e-04  1.9621e-03  2.4568e-04  1.0031e-04  0:00:12  406

  iter  continuity  x-velocity  y-velocity      energy           k       omega     time/iter
  4014  2.0026e-03  3.7439e-04  1.3960e-04  1.9739e-03  2.4500e-04  9.9803e-05  0:00:10  405
  4015  2.0141e-03  3.7145e-04  1.3885e-04  1.9854e-03  2.4426e-04  9.9300e-05  0:01:29  404
  4016  2.0255e-03  3.6490e-04  1.3850e-04  1.9968e-03  2.4347e-04  9.8786e-05  0:01:11  403
  4017  2.0369e-03  3.6303e-04  1.3845e-04  2.0082e-03  2.4265e-04  9.8253e-05  0:00:56  402
  4018  2.0483e-03  3.6356e-04  1.3815e-04  2.0196e-03  2.4180e-04  9.7703e-05  0:00:45  401
  4019  2.0595e-03  3.6410e-04  1.3755e-04  2.0307e-03  2.4089e-04  9.7146e-05  0:00:36  400
  4020  2.0702e-03  3.6477e-04  1.3721e-04  2.0414e-03  2.3994e-04  9.6604e-05  0:00:29  399
  4021  2.0805e-03  3.6627e-04  1.3727e-04  2.0516e-03  2.3898e-04  9.6072e-05  0:00:23  398
  4022  2.0906e-03  3.7054e-04  1.3745e-04  2.0618e-03  2.3796e-04  9.5547e-05  0:00:18  397
  4023  2.1005e-03  3.7225e-04  1.3749e-04  2.0716e-03  2.3689e-04  9.5031e-05  0:00:15  396
  4024  2.1101e-03  3.7535e-04  1.3720e-04  2.0812e-03  2.3578e-04  9.4518e-05  0:00:12  395

  iter  continuity  x-velocity  y-velocity      energy           k       omega     time/iter
  4025  2.1196e-03  3.8067e-04  1.3655e-04  2.0906e-03  2.3462e-04  9.4015e-05  0:01:28  394
  4026  2.1283e-03  3.7661e-04  1.3610e-04  2.0993e-03  2.3341e-04  9.3508e-05  0:01:10  393
  4027  2.1364e-03  3.7015e-04  1.3604e-04  2.1074e-03  2.3214e-04  9.2968e-05  0:00:56  392
  4028  2.1442e-03  3.6474e-04  1.3593e-04  2.1152e-03  2.3084e-04  9.2400e-05  0:00:45  391
  4029  2.1517e-03  3.5805e-04  1.3579e-04  2.1227e-03  2.2948e-04  9.1813e-05  0:00:36  390
  4030  2.1590e-03  3.5559e-04  1.3506e-04  2.1299e-03  2.2807e-04  9.1256e-05  0:00:28  389
  4031  2.1661e-03  3.6061e-04  1.3449e-04  2.1371e-03  2.2662e-04  9.0698e-05  0:00:23  388
  4032  2.1726e-03  3.5741e-04  1.3373e-04  2.1436e-03  2.2514e-04  9.0118e-05  0:00:18  387
  4033  2.1788e-03  3.5396e-04  1.3301e-04  2.1497e-03  2.2361e-04  8.9522e-05  0:00:14  386
  4034  2.1849e-03  3.5420e-04  1.3246e-04  2.1557e-03  2.2203e-04  8.8930e-05  0:00:12  385
  4035  2.1907e-03  3.5584e-04  1.2993e-04  2.1615e-03  2.2042e-04  8.8365e-05  0:01:26  384

  iter  continuity  x-velocity  y-velocity      energy           k       omega     time/iter
  4036  2.1963e-03  3.6072e-04  1.2826e-04  2.1671e-03  2.1878e-04  8.7824e-05  0:01:09  383
  4037  2.2016e-03  3.6629e-04  1.2709e-04  2.1724e-03  2.1710e-04  8.7297e-05  0:00:55  382
  4038  2.2067e-03  3.7053e-04  1.2609e-04  2.1774e-03  2.1534e-04  8.6765e-05  0:00:44  381
  4039  2.2112e-03  3.6950e-04  1.2570e-04  2.1819e-03  2.1357e-04  8.6242e-05  0:00:35  380
  4040  2.2156e-03  3.6742e-04  1.2537e-04  2.1862e-03  2.1176e-04  8.5715e-05  0:00:28  379
  4041  2.2193e-03  3.5979e-04  1.2472e-04  2.1898e-03  2.0992e-04  8.5191e-05  0:00:22  378
  4042  2.2229e-03  3.5742e-04  1.2341e-04  2.1934e-03  2.0804e-04  8.4688e-05  0:00:18  377
  4043  2.2265e-03  3.5621e-04  1.2197e-04  2.1969e-03  2.0614e-04  8.4210e-05  0:00:14  376
  4044  2.2297e-03  3.5569e-04  1.2175e-04  2.2001e-03  2.0424e-04  8.3753e-05  0:00:11  375
  4045  2.2324e-03  3.5103e-04  1.2116e-04  2.2027e-03  2.0235e-04  8.3312e-05  0:01:24  374
  4046  2.2350e-03  3.5380e-04  1.1925e-04  2.2054e-03  2.0047e-04  8.2877e-05  0:01:07  373

  iter  continuity  x-velocity  y-velocity      energy           k       omega     time/iter
  4047  2.2371e-03  3.5465e-04  1.1807e-04  2.2075e-03  1.9859e-04  8.2430e-05  0:00:53  372
  4048  2.2389e-03  3.4991e-04  1.1673e-04  2.2092e-03  1.9668e-04  8.2002e-05  0:00:43  371
  4049  2.2404e-03  3.4754e-04  1.1625e-04  2.2107e-03  1.9476e-04  8.1566e-05  0:00:34  370
  4050  2.2415e-03  3.4228e-04  1.1589e-04  2.2117e-03  1.9284e-04  8.1107e-05  0:00:27  369
  4051  2.2424e-03  3.4095e-04  1.1545e-04  2.2125e-03  1.9090e-04  8.0644e-05  0:00:22  368
  4052  2.2428e-03  3.3845e-04  1.1372e-04  2.2129e-03  1.8894e-04  8.0201e-05  0:00:17  367
  4053  2.2424e-03  3.3125e-04  1.1252e-04  2.2125e-03  1.8698e-04  7.9757e-05  0:00:14  366
  4054  2.2417e-03  3.2647e-04  1.1121e-04  2.2117e-03  1.8502e-04  7.9349e-05  0:00:11  365
  4055  2.2408e-03  3.2651e-04  1.1047e-04  2.2106e-03  1.8307e-04  7.8926e-05  0:01:22  364
  4056  2.2390e-03  3.2136e-04  1.1020e-04  2.2088e-03  1.8112e-04  7.8511e-05  0:01:05  363
  4057  2.2366e-03  3.1356e-04  1.1012e-04  2.2064e-03  1.7916e-04  7.8080e-05  0:00:52  362

  iter  continuity  x-velocity  y-velocity      energy           k       omega     time/iter
  4058  2.2340e-03  3.1213e-04  1.0945e-04  2.2037e-03  1.7719e-04  7.7637e-05  0:00:41  361
  4059  2.2307e-03  3.1091e-04  1.0828e-04  2.2003e-03  1.7521e-04  7.7199e-05  0:00:33  360
  4060  2.2269e-03  3.1218e-04  1.0709e-04  2.1964e-03  1.7319e-04  7.6747e-05  0:00:26  359
  4061  2.2225e-03  3.1124e-04  1.0599e-04  2.1920e-03  1.7117e-04  7.6268e-05  0:00:21  358
  4062  2.2175e-03  3.0718e-04  1.0524e-04  2.1870e-03  1.6914e-04  7.5826e-05  0:00:17  357
  4063  2.2119e-03  3.0660e-04  1.0428e-04  2.1814e-03  1.6711e-04  7.5433e-05  0:00:13  356
  4064  2.2056e-03  2.9681e-04  1.0378e-04  2.1751e-03  1.6509e-04  7.5053e-05  0:00:11  355
  4065  2.1990e-03  2.8826e-04  1.0335e-04  2.1685e-03  1.6308e-04  7.4680e-05  0:01:19  354
  4066  2.1920e-03  2.8683e-04  1.0301e-04  2.1615e-03  1.6105e-04  7.4287e-05  0:01:03  353
  4067  2.1846e-03  2.8610e-04  1.0288e-04  2.1542e-03  1.5902e-04  7.3920e-05  0:00:50  352
  4068  2.1769e-03  2.8788e-04  1.0196e-04  2.1465e-03  1.5700e-04  7.3560e-05  0:00:40  351

  iter  continuity  x-velocity  y-velocity      energy           k       omega     time/iter
  4069  2.1688e-03  2.9079e-04  1.0136e-04  2.1384e-03  1.5500e-04  7.3210e-05  0:00:32  350
  4070  2.1602e-03  2.9453e-04  1.0111e-04  2.1299e-03  1.5302e-04  7.2880e-05  0:00:26  349
  4071  2.1515e-03  2.9829e-04  1.0021e-04  2.1212e-03  1.5109e-04  7.2577e-05  0:00:20  348
  4072  2.1424e-03  3.0228e-04  9.8994e-05  2.1122e-03  1.4920e-04  7.2335e-05  0:00:16  347
  4073  2.1331e-03  3.0501e-04  9.8676e-05  2.1029e-03  1.4739e-04  7.2118e-05  0:00:13  346
  4074  2.1231e-03  2.9084e-04  9.7997e-05  2.0929e-03  1.4564e-04  7.1918e-05  0:00:10  345
  4075  2.1130e-03  2.7968e-04  9.6888e-05  2.0828e-03  1.4391e-04  7.1707e-05  0:00:08  344
  4076  2.1025e-03  2.6646e-04  9.5358e-05  2.0723e-03  1.4222e-04  7.1512e-05  0:01:15  343
  4077  2.0921e-03  2.5617e-04  9.3654e-05  2.0618e-03  1.4057e-04  7.1339e-05  0:01:00  342
  4078  2.0816e-03  2.4915e-04  9.1909e-05  2.0513e-03  1.3893e-04  7.1201e-05  0:00:48  341
  4079  2.0709e-03  2.4515e-04  9.0334e-05  2.0406e-03  1.3734e-04  7.1079e-05  0:00:38  340

  iter  continuity  x-velocity  y-velocity      energy           k       omega     time/iter
  4080  2.0601e-03  2.4360e-04  8.9014e-05  2.0298e-03  1.3580e-04  7.0969e-05  0:00:30  339
  4081  2.0491e-03  2.4121e-04  8.8165e-05  2.0187e-03  1.3429e-04  7.0875e-05  0:00:24  338
  4082  2.0380e-03  2.4382e-04  8.8037e-05  2.0077e-03  1.3283e-04  7.0819e-05  0:00:19  337
  4083  2.0268e-03  2.4574e-04  8.8122e-05  1.9964e-03  1.3143e-04  7.0766e-05  0:00:15  336
  4084  2.0154e-03  2.5114e-04  8.8193e-05  1.9850e-03  1.3007e-04  7.0727e-05  0:00:12  335
  4085  2.0038e-03  2.5434e-04  8.8083e-05  1.9734e-03  1.2871e-04  7.0684e-05  0:00:10  334
  4086  1.9919e-03  2.5585e-04  8.8088e-05  1.9616e-03  1.2738e-04  7.0635e-05  0:01:14  333
  4087  1.9799e-03  2.5480e-04  8.8313e-05  1.9497e-03  1.2610e-04  7.0588e-05  0:00:59  332
  4088  1.9678e-03  2.5474e-04  8.8132e-05  1.9375e-03  1.2492e-04  7.0556e-05  0:00:47  331
  4089  1.9555e-03  2.5327e-04  8.7886e-05  1.9253e-03  1.2385e-04  7.0530e-05  0:00:38  330
  4090  1.9431e-03  2.5135e-04  8.8227e-05  1.9129e-03  1.2288e-04  7.0498e-05  0:00:30  329

  iter  continuity  x-velocity  y-velocity      energy           k       omega     time/iter
  4091  1.9305e-03  2.5204e-04  8.8471e-05  1.9004e-03  1.2200e-04  7.0459e-05  0:00:24  328
  4092  1.9179e-03  2.5309e-04  8.8574e-05  1.8879e-03  1.2122e-04  7.0396e-05  0:00:19  327
  4093  1.9054e-03  2.6118e-04  8.8802e-05  1.8754e-03  1.2055e-04  7.0298e-05  0:00:15  326
  4094  1.8929e-03  2.7321e-04  8.8949e-05  1.8629e-03  1.1994e-04  7.0205e-05  0:00:12  325
  4095  1.8803e-03  2.8868e-04  8.9995e-05  1.8503e-03  1.1941e-04  7.0088e-05  0:00:10  324
  4096  1.8674e-03  3.0218e-04  8.9753e-05  1.8375e-03  1.1898e-04  6.9961e-05  0:01:12  323
  4097  1.8544e-03  3.1729e-04  8.9046e-05  1.8245e-03  1.1867e-04  6.9850e-05  0:00:58  322
  4098  1.8411e-03  3.2940e-04  8.8663e-05  1.8112e-03  1.1844e-04  6.9697e-05  0:00:46  321
  4099  1.8265e-03  3.1520e-04  8.8647e-05  1.7966e-03  1.1827e-04  6.9503e-05  0:00:37  320
  4100  1.8119e-03  3.0678e-04  8.8257e-05  1.7820e-03  1.1818e-04  6.9286e-05  0:00:29  319
  4101  1.7968e-03  3.0004e-04  8.7987e-05  1.7669e-03  1.1815e-04  6.9058e-05  0:00:23  318

  iter  continuity  x-velocity  y-velocity      energy           k       omega     time/iter
  4102  1.7817e-03  2.9982e-04  8.7198e-05  1.7518e-03  1.1819e-04  6.8849e-05  0:00:19  317
  4103  1.7665e-03  3.0789e-04  8.7375e-05  1.7366e-03  1.1831e-04  6.8655e-05  0:00:15  316
  4104  1.7502e-03  3.0222e-04  8.7349e-05  1.7204e-03  1.1845e-04  6.8485e-05  0:00:12  315
  4105  1.7330e-03  2.7729e-04  8.6895e-05  1.7032e-03  1.1864e-04  6.8328e-05  0:00:09  314
  4106  1.7158e-03  2.5661e-04  8.6141e-05  1.6861e-03  1.1885e-04  6.8187e-05  0:00:08  313
  4107  1.6984e-03  2.4603e-04  8.5535e-05  1.6690e-03  1.1912e-04  6.8075e-05  0:01:08  312
  4108  1.6813e-03  2.3895e-04  8.5026e-05  1.6519e-03  1.1943e-04  6.7999e-05  0:00:55  311
  4109  1.6640e-03  2.3509e-04  8.4527e-05  1.6347e-03  1.1983e-04  6.7973e-05  0:00:43  310
  4110  1.6467e-03  2.3706e-04  8.4465e-05  1.6175e-03  1.2025e-04  6.7959e-05  0:00:35  309
  4111  1.6292e-03  2.3656e-04  8.4210e-05  1.6000e-03  1.2073e-04  6.7944e-05  0:00:28  308
  4112  1.6116e-03  2.3816e-04  8.3918e-05  1.5823e-03  1.2126e-04  6.7926e-05  0:00:22  307

  iter  continuity  x-velocity  y-velocity      energy           k       omega     time/iter
  4113  1.5939e-03  2.3845e-04  8.4355e-05  1.5646e-03  1.2191e-04  6.7933e-05  0:00:18  306
  4114  1.5758e-03  2.3693e-04  8.5712e-05  1.5466e-03  1.2270e-04  6.7937e-05  0:00:14  305
  4115  1.5577e-03  2.3292e-04  8.7020e-05  1.5285e-03  1.2365e-04  6.7951e-05  0:01:12  304
  4116  1.5395e-03  2.3187e-04  8.7711e-05  1.5104e-03  1.2471e-04  6.7976e-05  0:00:57  303
  4117  1.5215e-03  2.3922e-04  8.7585e-05  1.4925e-03  1.2584e-04  6.8002e-05  0:00:46  302
  4118  1.5037e-03  2.4687e-04  8.7020e-05  1.4747e-03  1.2700e-04  6.8031e-05  0:00:36  301
  4119  1.4858e-03  2.5476e-04  8.6767e-05  1.4569e-03  1.2820e-04  6.8059e-05  0:00:29  300
  4120  1.4682e-03  2.6761e-04  8.7427e-05  1.4394e-03  1.2949e-04  6.8086e-05  0:00:23  299
  4121  1.4504e-03  2.7136e-04  8.8757e-05  1.4217e-03  1.3086e-04  6.8119e-05  0:00:18  298
  4122  1.4325e-03  2.7378e-04  8.9005e-05  1.4039e-03  1.3231e-04  6.8169e-05  0:00:15  297
  4123  1.4149e-03  2.8348e-04  8.9558e-05  1.3865e-03  1.3380e-04  6.8211e-05  0:00:12  296

  iter  continuity  x-velocity  y-velocity      energy           k       omega     time/iter
  4124  1.3977e-03  2.9709e-04  8.9446e-05  1.3695e-03  1.3531e-04  6.8249e-05  0:01:08  295
  4125  1.3807e-03  3.0412e-04  9.0318e-05  1.3525e-03  1.3684e-04  6.8280e-05  0:00:55  294
  4126  1.3639e-03  3.0978e-04  9.0199e-05  1.3356e-03  1.3837e-04  6.8316e-05  0:00:43  293
  4127  1.3474e-03  3.1665e-04  9.0040e-05  1.3191e-03  1.3990e-04  6.8351e-05  0:00:35  292
  4128  1.3309e-03  3.1979e-04  8.9221e-05  1.3023e-03  1.4143e-04  6.8382e-05  0:00:28  291
  4129  1.3144e-03  3.2021e-04  8.9761e-05  1.2857e-03  1.4296e-04  6.8419e-05  0:00:22  290
  4130  1.2975e-03  3.2891e-04  9.0536e-05  1.2689e-03  1.4448e-04  6.8441e-05  0:00:18  289
  4131  1.2795e-03  3.1304e-04  9.1426e-05  1.2509e-03  1.4597e-04  6.8455e-05  0:00:14  288
  4132  1.2607e-03  2.8223e-04  9.1464e-05  1.2323e-03  1.4745e-04  6.8453e-05  0:00:11  287
  4133  1.2431e-03  2.6131e-04  9.1023e-05  1.2149e-03  1.4891e-04  6.8445e-05  0:00:09  286
  4134  1.2259e-03  2.5015e-04  9.0955e-05  1.1978e-03  1.5035e-04  6.8456e-05  0:00:07  285

  iter  continuity  x-velocity  y-velocity      energy           k       omega     time/iter
  4135  1.2097e-03  2.5271e-04  9.1239e-05  1.1816e-03  1.5179e-04  6.8485e-05  0:01:02  284
  4136  1.1939e-03  2.6099e-04  9.1492e-05  1.1658e-03  1.5322e-04  6.8506e-05  0:00:50  283
  4137  1.1779e-03  2.5838e-04  9.1833e-05  1.1497e-03  1.5464e-04  6.8532e-05  0:00:40  282
  4138  1.1618e-03  2.4770e-04  9.1862e-05  1.1335e-03  1.5602e-04  6.8557e-05  0:00:32  281
  4139  1.1458e-03  2.3790e-04  9.2085e-05  1.1174e-03  1.5737e-04  6.8550e-05  0:00:25  280
  4140  1.1303e-03  2.3188e-04  9.1976e-05  1.1019e-03  1.5868e-04  6.8528e-05  0:00:20  279
  4141  1.1152e-03  2.2446e-04  9.2184e-05  1.0867e-03  1.5995e-04  6.8507e-05  0:00:16  278
  4142  1.1009e-03  2.2658e-04  9.3712e-05  1.0724e-03  1.6119e-04  6.8510e-05  0:00:13  277
  4143  1.0871e-03  2.2993e-04  9.4645e-05  1.0585e-03  1.6240e-04  6.8528e-05  0:00:10  276
  4144  1.0735e-03  2.3298e-04  9.5074e-05  1.0449e-03  1.6358e-04  6.8556e-05  0:00:08  275
  4145  1.0602e-03  2.3049e-04  9.4343e-05  1.0316e-03  1.6473e-04  6.8594e-05  0:01:01  274

  iter  continuity  x-velocity  y-velocity      energy           k       omega     time/iter
  4146  1.0478e-03  2.3830e-04  9.4480e-05  1.0192e-03  1.6582e-04  6.8623e-05  0:00:49  273
  4147  1.0358e-03  2.4304e-04  9.5205e-05  1.0072e-03  1.6688e-04  6.8660e-05  0:00:39  272
  4148  1.0237e-03  2.4541e-04  9.5874e-05  9.9520e-04  1.6791e-04  6.8687e-05  0:00:31  271
  4149  1.0129e-03  2.5852e-04  9.6972e-05  9.8449e-04  1.6890e-04  6.8698e-05  0:00:25  270
  4150  1.0028e-03  2.7442e-04  9.7601e-05  9.7445e-04  1.6986e-04  6.8701e-05  0:00:20  269
  4151  9.9274e-04  2.7941e-04  9.7660e-05  9.6441e-04  1.7078e-04  6.8702e-05  0:00:16  268
! 4151 solution is converged

> /plot/plot yes loading.txt yes no no absolute-pressure yes 1 0 upper-blade ()

> ;exit yes

> (cx-gui-do cx-set-list-tree-selections "NavigationPane*List_Tree1" (list "Results|Graphics|Contours"))
(cx-gui-do cx-set-list-tree-selections "NavigationPane*List_Tree1" (list "Results|Graphics|Contours"))
(cx-gui-do cx-activate-item "NavigationPane*List_Tree1")
(cx-gui-do cx-set-list-tree-selections "NavigationPane*List_Tree1" (list "Results|Graphics|Contours"))
(cx-gui-do cx-set-list-selections "Contours*Table1*Frame3*Table1*DropDownList1(Contours of)" '( 2))
(cx-gui-do cx-activate-item "Contours*Table1*Frame3*Table1*DropDownList1(Contours of)")
(cx-gui-do cx-set-list-selections "Contours*Table1*Frame3*Table1*DropDownList2" '( 6))
(cx-gui-do cx-activate-item "Contours*Table1*Frame3*Table1*DropDownList2")
(cx-gui-do cx-activate-item "Contours*PanelButtons*PushButton1(OK)")
Creating zone surface for fluid-9 zone
/exit y

Posting ANSYS Product Improvement Program performance data 
Done.
(cx-gui-do cx-activate-item "Question*OK")
