
              Welcome to ANSYS Fluent 2021 R2

              Copyright 1987-2021 ANSYS, Inc. All Rights Reserved.
              Unauthorized use, distribution or duplication is prohibited.
              This product is subject to U.S. laws governing export and re-export.
              For full Legal Notice, see documentation.

Build Time: May 28 2021 13:54:56 EDT  Build Id: 10201  
 

     --------------------------------------------------------------
     This is an academic version of ANSYS FLUENT. Usage of this product
     license is limited to the terms and conditions specified in your ANSYS
     license form, additional terms section.
     --------------------------------------------------------------
Host spawning Node 0 on machine "WL-CH-009" (win64).

-------------------------------------------------------------------------------
ID    Hostname   Core   O.S.         PID    Vendor                       
-------------------------------------------------------------------------------
n31   WL-CH-009  32/36  Windows-x64  34676  Intel(R) Xeon(R) W-2295      
n30   WL-CH-009  31/36  Windows-x64  36036  Intel(R) Xeon(R) W-2295      
n29   WL-CH-009  30/36  Windows-x64  27028  Intel(R) Xeon(R) W-2295      
n28   WL-CH-009  29/36  Windows-x64  30936  Intel(R) Xeon(R) W-2295      
n27   WL-CH-009  28/36  Windows-x64  36164  Intel(R) Xeon(R) W-2295      
n26   WL-CH-009  27/36  Windows-x64  44564  Intel(R) Xeon(R) W-2295      
n25   WL-CH-009  26/36  Windows-x64  20036  Intel(R) Xeon(R) W-2295      
n24   WL-CH-009  25/36  Windows-x64  33048  Intel(R) Xeon(R) W-2295      
n23   WL-CH-009  24/36  Windows-x64  42536  Intel(R) Xeon(R) W-2295      
n22   WL-CH-009  23/36  Windows-x64  41072  Intel(R) Xeon(R) W-2295      
n21   WL-CH-009  22/36  Windows-x64  33156  Intel(R) Xeon(R) W-2295      
n20   WL-CH-009  21/36  Windows-x64  3912   Intel(R) Xeon(R) W-2295      
n19   WL-CH-009  20/36  Windows-x64  10012  Intel(R) Xeon(R) W-2295      
n18   WL-CH-009  19/36  Windows-x64  38084  Intel(R) Xeon(R) W-2295      
n17   WL-CH-009  18/36  Windows-x64  13568  Intel(R) Xeon(R) W-2295      
n16   WL-CH-009  17/36  Windows-x64  25132  Intel(R) Xeon(R) W-2295      
n15   WL-CH-009  16/36  Windows-x64  18028  Intel(R) Xeon(R) W-2295      
n14   WL-CH-009  15/36  Windows-x64  15780  Intel(R) Xeon(R) W-2295      
n13   WL-CH-009  14/36  Windows-x64  23852  Intel(R) Xeon(R) W-2295      
n12   WL-CH-009  13/36  Windows-x64  24728  Intel(R) Xeon(R) W-2295      
-------------------------------------------------------------------------------
ID    Hostname   Core   O.S.         PID    Vendor                       
-------------------------------------------------------------------------------
n11   WL-CH-009  12/36  Windows-x64  17900  Intel(R) Xeon(R) W-2295      
n10   WL-CH-009  11/36  Windows-x64  21096  Intel(R) Xeon(R) W-2295      
n9    WL-CH-009  10/36  Windows-x64  42796  Intel(R) Xeon(R) W-2295      
n8    WL-CH-009  9/36   Windows-x64  25988  Intel(R) Xeon(R) W-2295      
n7    WL-CH-009  8/36   Windows-x64  28688  Intel(R) Xeon(R) W-2295      
n6    WL-CH-009  7/36   Windows-x64  22780  Intel(R) Xeon(R) W-2295      
n5    WL-CH-009  6/36   Windows-x64  39476  Intel(R) Xeon(R) W-2295      
n4    WL-CH-009  5/36   Windows-x64  34280  Intel(R) Xeon(R) W-2295      
n3    WL-CH-009  4/36   Windows-x64  24968  Intel(R) Xeon(R) W-2295      
n2    WL-CH-009  3/36   Windows-x64  8376   Intel(R) Xeon(R) W-2295      
n1    WL-CH-009  2/36   Windows-x64  16300  Intel(R) Xeon(R) W-2295      
n0*   WL-CH-009  1/36   Windows-x64  38960  Intel(R) Xeon(R) W-2295      
host  WL-CH-009         Windows-x64  43796  Intel(R) Xeon(R) W-2295      

MPI Option Selected: intel
Selected system interconnect: default
-------------------------------------------------------------------------------

Cleanup script file is E:\\MATLAB\\RANS_optimisation\\cleanup-fluent-WL-CH-009-43796.bat

Posting ANSYS Product Improvement Program startup data
Done.

Reading journal file E:\MATLAB\RANS_optimisation\run15\fluent_input.jou...

> /sync-chdir E:\MATLAB\RANS_optimisation\run15

> /file/read-case "grid.msh"
Reading "grid.msh"...

Buffering for file scan...

  112722 quadrilateral cells, zone  9.
  224998 2D interior faces, zone  2.
Warning: Reversing 238 faces, zone  2.
     237 2D pressure-inlet faces, zone  3.
Warning: Reversing 237 faces, zone  3.
     477 2D pressure-outlet faces, zone  4.
Warning: Reversing 477 faces, zone  4.
     477 2D pressure-outlet faces, zone  5.
     207 2D pressure-outlet faces, zone  6.
     254 2D wall faces, zone  7.
Warning: Reversing 15 faces, zone  7.
     252 2D wall faces, zone  8.
Warning: Reversing 223 faces, zone  8.
  113674 nodes.

Building...
     mesh
	auto partitioning mesh by Metis (fast),
	distributing mesh
		parts................................,
		faces................................,
		nodes................................,
		cells................................,
        bandwidth reduction using Reverse Cuthill-McKee: 2716/83 = 32.7229
     materials,
     interface,
     domains,
     zones,
	fluid-9
	wall-8
	wall-7
	pressure-outlet-6
	pressure-outlet-5
	pressure-outlet-4
	pressure-inlet-3
	interior-2
     parallel,
Done.

Preparing mesh for display...
Done.
 

> /define/boundary-conditions/modify-zones/zone-name 3 inlet 

> /define/boundary-conditions/modify-zones/zone-name 4 upper 

> /define/boundary-conditions/modify-zones/zone-name 5 lower 

> /define/boundary-conditions/modify-zones/zone-name 6 outlet

> /define/boundary-conditions/modify-zones/zone-name 7 upper-blade

> /define/boundary-conditions/modify-zones/zone-name 8 lower-blade

> /define/materials/change-create air air air is a fluid
yes 
Density
ideal-gas no data required.

yes 
Cp (Specific Heat)
constant 1005 
yes 
Thermal Conductivity
expression "DynamicViscosity*1005 [J/(kg K)]/0.72"
 yes 
Viscosity
sutherland three-coefficient-method 5.83247e-04 273 110.4 
no no no

Note: Enabling energy equation as required by material density method.

> /define/operating-conditions/operating-pressure 0

> /define/models/viscous/kw-sst? yes

> /define/boundary-conditions/zone-type inlet pressure-inlet 

> /define/boundary-conditions/pressure-inlet (inlet)
inlet yes no 74575.2 no 46984 no 300 no yes no no yes 0.5 1

> /define/boundary-conditions/zone-type outlet pressure-outlet 

> /define/boundary-conditions/bc-settings/pressure-outlet 0. 65 

> /define/boundary-conditions/pressure-outlet (outlet upper lower)
outlet yes no 46984 no 300 no yes no no yes 0.5 1 yes no no

> /define/boundary-conditions/copy-bc outlet (upper lower)Copy outlet boundary conditions to lower
Copy outlet boundary conditions to upper


> /define/boundary-conditions/wall (upper-blade lower-blade)
upper-blade 0 no 0 no no no 0 no no no no 0 no 0.5 no 1

> /define/boundary-conditions/copy-bc upper-blade (lower-blade)Copy upper-blade boundary conditions to lower-blade


> /define/models/solver/densit-based-implicit yes

> /file/read-data E:\MATLAB\RANS_optimisation\clean.dat

Reading "E:\MATLAB\RANS_optimisation\clean.dat"...



Parallel variables...
Done.

> ;/solve/initialize/initialize-flow
;/solve/initialize/compute-defaults/pressure-inlet inlet
;/solve/initialize/initialize-flow yes
;/solve/initialize/hyb-initialization
/solve/iterate 2000

  iter  continuity  x-velocity  y-velocity      energy           k       omega     time/iter
  2419  9.9521e-04  3.5719e-04  6.8654e-05  9.7828e-04  1.7105e-04  4.2984e-05  0:00:00 2000
  2420  9.0577e-02  6.0810e-02  5.4638e-02  9.0581e-02  3.9997e-03  1.1476e-02  0:00:00 1999
  2421  7.6916e-02  4.6244e-02  5.2668e-02  7.7328e-02  3.8204e-03  9.5547e-03  0:00:00 1998
  2422  5.9519e-02  3.2594e-02  5.0552e-02  5.9790e-02  3.6421e-03  7.5163e-03  0:33:17 1997
  2423  4.5217e-02  2.4398e-02  4.4383e-02  4.4952e-02  3.4637e-03  6.1118e-03  0:26:37 1996
  2424  3.5448e-02  2.0285e-02  3.6392e-02  3.4847e-02  3.2842e-03  5.6709e-03  0:21:17 1995
  2425  2.9203e-02  1.8079e-02  2.8611e-02  2.8613e-02  3.1044e-03  5.3166e-03  0:17:01 1994
  2426  2.5398e-02  1.6543e-02  2.2286e-02  2.4981e-02  2.9285e-03  4.8989e-03  0:13:36 1993
  2427  2.3285e-02  1.5274e-02  1.7650e-02  2.3048e-02  2.7560e-03  4.4101e-03  0:10:53 1992
  2428  2.2041e-02  1.4104e-02  1.4527e-02  2.1935e-02  2.5942e-03  3.9640e-03  0:08:42 1991
  2429  2.1077e-02  1.2940e-02  1.2561e-02  2.1054e-02  2.4464e-03  3.4824e-03  0:06:57 1990

  iter  continuity  x-velocity  y-velocity      energy           k       omega     time/iter
  2430  2.0085e-02  1.1756e-02  1.1353e-02  2.0104e-02  2.3133e-03  3.0305e-03  0:05:34 1989
  2431  1.8983e-02  1.0582e-02  1.0584e-02  1.9014e-02  2.1968e-03  2.6668e-03  0:04:27 1988
  2432  1.7778e-02  9.4272e-03  1.0031e-02  1.7796e-02  2.0953e-03  2.4462e-03  0:10:11 1987
  2433  1.6562e-02  8.3496e-03  9.5552e-03  1.6551e-02  2.0059e-03  2.2958e-03  0:08:08 1986
  2434  1.5415e-02  7.3776e-03  9.0767e-03  1.5360e-02  1.9265e-03  2.1835e-03  0:06:30 1985
  2435  1.4398e-02  6.5711e-03  8.5827e-03  1.4291e-02  1.8562e-03  2.1084e-03  0:05:12 1984
  2436  1.3536e-02  5.9723e-03  8.0780e-03  1.3373e-02  1.7937e-03  2.0718e-03  0:04:10 1983
  2437  1.2838e-02  5.6380e-03  7.5756e-03  1.2619e-02  1.7373e-03  2.0549e-03  0:03:20 1982
  2438  1.2291e-02  5.5554e-03  7.0907e-03  1.2023e-02  1.6864e-03  2.0569e-03  0:02:40 1981
  2439  1.1884e-02  5.6643e-03  6.6299e-03  1.1574e-02  1.6409e-03  2.0673e-03  0:02:08 1980
  2440  1.1599e-02  5.8883e-03  6.2137e-03  1.1254e-02  1.5995e-03  2.0807e-03  0:01:42 1979

  iter  continuity  x-velocity  y-velocity      energy           k       omega     time/iter
  2441  1.1406e-02  6.1674e-03  5.8559e-03  1.1034e-02  1.5622e-03  2.0876e-03  0:01:22 1978
  2442  1.1304e-02  6.4359e-03  5.5525e-03  1.0911e-02  1.5288e-03  2.0894e-03  0:07:41 1977
  2443  1.1300e-02  6.6694e-03  5.3112e-03  1.0890e-02  1.4987e-03  2.0915e-03  0:06:08 1976
  2444  1.1452e-02  6.8455e-03  5.1234e-03  1.1029e-02  1.4713e-03  2.0930e-03  0:04:55 1975
  2445  1.1771e-02  6.9620e-03  4.9888e-03  1.1339e-02  1.4477e-03  2.0961e-03  0:03:55 1974
  2446  1.2248e-02  7.0184e-03  4.8934e-03  1.1811e-02  1.4275e-03  2.0925e-03  0:03:08 1973
  2447  1.2888e-02  7.0126e-03  4.8348e-03  1.2451e-02  1.4097e-03  2.0785e-03  0:02:31 1972
  2448  1.3700e-02  6.9547e-03  4.7884e-03  1.3264e-02  1.3961e-03  2.0495e-03  0:02:00 1971
  2449  1.4647e-02  6.8562e-03  4.7367e-03  1.4216e-02  1.3854e-03  2.0072e-03  0:01:36 1970
  2450  1.5687e-02  6.7403e-03  4.6770e-03  1.5264e-02  1.3780e-03  1.9666e-03  0:01:17 1969
  2451  1.6768e-02  6.6078e-03  4.6020e-03  1.6356e-02  1.3734e-03  1.9210e-03  0:07:35 1968

  iter  continuity  x-velocity  y-velocity      energy           k       omega     time/iter
  2452  1.7841e-02  6.4778e-03  4.5023e-03  1.7440e-02  1.3694e-03  1.8770e-03  0:06:04 1967
  2453  1.8850e-02  6.3685e-03  4.3767e-03  1.8462e-02  1.3674e-03  1.8336e-03  0:04:51 1966
  2454  1.9740e-02  6.2872e-03  4.2185e-03  1.9365e-02  1.3661e-03  1.7960e-03  0:03:53 1965
  2455  2.0534e-02  6.2341e-03  4.0433e-03  2.0173e-02  1.3663e-03  1.7632e-03  0:03:06 1964
  2456  2.1208e-02  6.2089e-03  3.8603e-03  2.0862e-02  1.3665e-03  1.7389e-03  0:02:29 1963
  2457  2.1750e-02  6.2027e-03  3.6761e-03  2.1421e-02  1.3683e-03  1.7162e-03  0:01:59 1962
  2458  2.2149e-02  6.2030e-03  3.4892e-03  2.1838e-02  1.3705e-03  1.6961e-03  0:01:35 1961
  2459  2.2365e-02  6.2066e-03  3.3262e-03  2.2072e-02  1.3727e-03  1.6874e-03  0:01:16 1960
  2460  2.2389e-02  6.2166e-03  3.1776e-03  2.2114e-02  1.3754e-03  1.6750e-03  0:01:01 1959
  2461  2.2256e-02  6.2181e-03  3.0640e-03  2.1999e-02  1.3794e-03  1.6651e-03  0:00:49 1958
  2462  2.1988e-02  6.2010e-03  2.9694e-03  2.1748e-02  1.3821e-03  1.6554e-03  0:07:10 1957

  iter  continuity  x-velocity  y-velocity      energy           k       omega     time/iter
  2463  2.1622e-02  6.1684e-03  2.9133e-03  2.1398e-02  1.3887e-03  1.6441e-03  0:05:44 1956
  2464  2.1183e-02  6.1162e-03  2.8959e-03  2.0975e-02  1.3940e-03  1.6330e-03  0:04:35 1955
  2465  2.0663e-02  6.0460e-03  2.8916e-03  2.0470e-02  1.3986e-03  1.6238e-03  0:03:40 1954
  2466  2.0052e-02  5.9625e-03  2.8832e-03  1.9873e-02  1.4055e-03  1.6064e-03  0:02:56 1953
  2467  1.9361e-02  5.8595e-03  2.8827e-03  1.9195e-02  1.4105e-03  1.5929e-03  0:02:21 1952
  2468  1.8606e-02  5.7423e-03  2.9056e-03  1.8450e-02  1.4149e-03  1.5812e-03  0:01:52 1951
  2469  1.7802e-02  5.6148e-03  2.9305e-03  1.7654e-02  1.4202e-03  1.5719e-03  0:01:30 1950
  2470  1.6967e-02  5.4798e-03  2.9585e-03  1.6826e-02  1.4226e-03  1.5646e-03  0:01:12 1949
  2471  1.6110e-02  5.3413e-03  2.9689e-03  1.5974e-02  1.4258e-03  1.5574e-03  0:07:27 1948
  2472  1.5260e-02  5.2039e-03  2.9788e-03  1.5129e-02  1.4282e-03  1.5506e-03  0:05:57 1947
  2473  1.4421e-02  5.0716e-03  2.9501e-03  1.4294e-02  1.4302e-03  1.5430e-03  0:04:46 1946

  iter  continuity  x-velocity  y-velocity      energy           k       omega     time/iter
  2474  1.3585e-02  4.9414e-03  2.9348e-03  1.3460e-02  1.4339e-03  1.5356e-03  0:03:49 1945
  2475  1.2764e-02  4.8168e-03  2.9242e-03  1.2638e-02  1.4375e-03  1.5230e-03  0:03:03 1944
  2476  1.1975e-02  4.6986e-03  2.9147e-03  1.1846e-02  1.4398e-03  1.5167e-03  0:02:26 1943
  2477  1.1240e-02  4.5869e-03  2.9060e-03  1.1109e-02  1.4428e-03  1.5128e-03  0:01:57 1942
  2478  1.0582e-02  4.4784e-03  2.8968e-03  1.0448e-02  1.4470e-03  1.5094e-03  0:01:33 1941
  2479  1.0007e-02  4.3777e-03  2.8929e-03  9.8731e-03  1.4505e-03  1.5063e-03  0:01:15 1940
  2480  9.5060e-03  4.2833e-03  2.8677e-03  9.3714e-03  1.4542e-03  1.5027e-03  0:01:00 1939
  2481  9.0847e-03  4.1985e-03  2.8232e-03  8.9485e-03  1.4585e-03  1.4955e-03  0:07:15 1938
  2482  8.7331e-03  4.1180e-03  2.7922e-03  8.5943e-03  1.4660e-03  1.4863e-03  0:05:48 1937
  2483  8.4607e-03  4.0387e-03  2.7702e-03  8.3199e-03  1.4728e-03  1.4756e-03  0:04:38 1936
  2484  8.2613e-03  3.9658e-03  2.7463e-03  8.1199e-03  1.4781e-03  1.4674e-03  0:03:43 1935

  iter  continuity  x-velocity  y-velocity      energy           k       omega     time/iter
  2485  8.1297e-03  3.8963e-03  2.7227e-03  7.9889e-03  1.4836e-03  1.4639e-03  0:02:58 1934
  2486  8.0587e-03  3.8311e-03  2.6939e-03  7.9196e-03  1.4904e-03  1.4580e-03  0:02:22 1933
  2487  8.0468e-03  3.7746e-03  2.6546e-03  7.9094e-03  1.4987e-03  1.4538e-03  0:01:54 1932
  2488  8.0853e-03  3.7213e-03  2.6155e-03  7.9501e-03  1.5063e-03  1.4496e-03  0:01:31 1931
  2489  8.1582e-03  3.6755e-03  2.5764e-03  8.0242e-03  1.5128e-03  1.4404e-03  0:01:13 1930
  2490  8.2397e-03  3.6314e-03  2.5369e-03  8.1066e-03  1.5193e-03  1.4333e-03  0:07:24 1929
  2491  8.3411e-03  3.5904e-03  2.4996e-03  8.2085e-03  1.5275e-03  1.4250e-03  0:05:55 1928
  2492  8.4605e-03  3.5516e-03  2.4594e-03  8.3291e-03  1.5356e-03  1.4169e-03  0:04:44 1927
  2493  8.5818e-03  3.5183e-03  2.4129e-03  8.4513e-03  1.5429e-03  1.4066e-03  0:03:47 1926
  2494  8.7113e-03  3.4927e-03  2.3609e-03  8.5819e-03  1.5487e-03  1.4007e-03  0:03:01 1925
  2495  8.8445e-03  3.4684e-03  2.3030e-03  8.7169e-03  1.5548e-03  1.3932e-03  0:02:25 1924

  iter  continuity  x-velocity  y-velocity      energy           k       omega     time/iter
  2496  8.9589e-03  3.4463e-03  2.2477e-03  8.8323e-03  1.5616e-03  1.3880e-03  0:01:56 1923
  2497  9.0752e-03  3.4285e-03  2.1982e-03  8.9493e-03  1.5688e-03  1.3790e-03  0:01:33 1922
  2498  9.1814e-03  3.4111e-03  2.1537e-03  9.0558e-03  1.5753e-03  1.3724e-03  0:01:14 1921
  2499  9.2835e-03  3.3973e-03  2.1054e-03  9.1586e-03  1.5815e-03  1.3618e-03  0:07:23 1920
  2500  9.3871e-03  3.3859e-03  2.0616e-03  9.2642e-03  1.5883e-03  1.3550e-03  0:05:54 1919
  2501  9.4737e-03  3.3802e-03  2.0180e-03  9.3535e-03  1.5954e-03  1.3406e-03  0:04:43 1918
  2502  9.5414e-03  3.3686e-03  1.9749e-03  9.4238e-03  1.6025e-03  1.3265e-03  0:03:47 1917
  2503  9.6008e-03  3.3585e-03  1.9326e-03  9.4861e-03  1.6086e-03  1.3130e-03  0:03:01 1916
  2504  9.6369e-03  3.3351e-03  1.8845e-03  9.5241e-03  1.6144e-03  1.3026e-03  0:02:25 1915
  2505  9.6591e-03  3.3146e-03  1.8423e-03  9.5482e-03  1.6216e-03  1.2927e-03  0:01:56 1914
  2506  9.6731e-03  3.3017e-03  1.8087e-03  9.5654e-03  1.6287e-03  1.2817e-03  0:01:33 1913

  iter  continuity  x-velocity  y-velocity      energy           k       omega     time/iter
  2507  9.6685e-03  3.2920e-03  1.7774e-03  9.5631e-03  1.6362e-03  1.2734e-03  0:01:14 1912
  2508  9.6440e-03  3.2827e-03  1.7498e-03  9.5408e-03  1.6429e-03  1.2634e-03  0:07:21 1911
  2509  9.6065e-03  3.2717e-03  1.7268e-03  9.5055e-03  1.6514e-03  1.2521e-03  0:05:53 1910
  2510  9.5536e-03  3.2600e-03  1.7034e-03  9.4554e-03  1.6608e-03  1.2397e-03  0:04:42 1909
  2511  9.4908e-03  3.2498e-03  1.6907e-03  9.3956e-03  1.6698e-03  1.2257e-03  0:03:46 1908
  2512  9.4224e-03  3.2385e-03  1.6689e-03  9.3315e-03  1.6781e-03  1.2143e-03  0:03:00 1907
  2513  9.3370e-03  3.2247e-03  1.6460e-03  9.2498e-03  1.6872e-03  1.2027e-03  0:02:24 1906
  2514  9.2533e-03  3.2098e-03  1.6265e-03  9.1703e-03  1.6973e-03  1.1913e-03  0:01:55 1905
  2515  9.1685e-03  3.1964e-03  1.6155e-03  9.0899e-03  1.7066e-03  1.1786e-03  0:07:53 1904
  2516  9.0550e-03  3.1884e-03  1.6127e-03  8.9795e-03  1.7153e-03  1.1646e-03  0:06:18 1903
  2517  8.9399e-03  3.1813e-03  1.6068e-03  8.8674e-03  1.7243e-03  1.1494e-03  0:05:02 1902

  iter  continuity  x-velocity  y-velocity      energy           k       omega     time/iter
  2518  8.8429e-03  3.1770e-03  1.6083e-03  8.7751e-03  1.7348e-03  1.1362e-03  0:04:02 1901
  2519  8.7340e-03  3.1787e-03  1.6106e-03  8.6698e-03  1.7447e-03  1.1254e-03  0:03:13 1900
  2520  8.6178e-03  3.1789e-03  1.6157e-03  8.5570e-03  1.7536e-03  1.1145e-03  0:02:35 1899
  2521  8.4794e-03  3.1658e-03  1.6163e-03  8.4211e-03  1.7623e-03  1.1056e-03  0:02:04 1898
  2522  8.3412e-03  3.1551e-03  1.6221e-03  8.2851e-03  1.7712e-03  1.0987e-03  0:01:39 1897
  2523  8.2130e-03  3.1506e-03  1.6327e-03  8.1589e-03  1.7794e-03  1.0917e-03  0:01:19 1896
  2524  8.1018e-03  3.1412e-03  1.6364e-03  8.0503e-03  1.7863e-03  1.0825e-03  0:01:03 1895
  2525  7.9913e-03  3.1354e-03  1.6341e-03  7.9420e-03  1.7931e-03  1.0727e-03  0:07:09 1894
  2526  7.8883e-03  3.1302e-03  1.6371e-03  7.8406e-03  1.7998e-03  1.0641e-03  0:05:43 1893
  2527  7.7907e-03  3.1173e-03  1.6438e-03  7.7445e-03  1.8056e-03  1.0561e-03  0:04:34 1892
  2528  7.7028e-03  3.0999e-03  1.6520e-03  7.6579e-03  1.8109e-03  1.0478e-03  0:03:39 1891

  iter  continuity  x-velocity  y-velocity      energy           k       omega     time/iter
  2529  7.6237e-03  3.0851e-03  1.6601e-03  7.5795e-03  1.8162e-03  1.0401e-03  0:02:55 1890
  2530  7.5462e-03  3.0685e-03  1.6624e-03  7.5019e-03  1.8217e-03  1.0315e-03  0:02:20 1889
  2531  7.4803e-03  3.0505e-03  1.6688e-03  7.4355e-03  1.8268e-03  1.0211e-03  0:01:52 1888
  2532  7.4227e-03  3.0241e-03  1.6673e-03  7.3772e-03  1.8304e-03  1.0117e-03  0:01:30 1887
  2533  7.3741e-03  2.9869e-03  1.6621e-03  7.3277e-03  1.8334e-03  1.0032e-03  0:01:12 1886
  2534  7.3405e-03  2.9559e-03  1.6567e-03  7.2931e-03  1.8370e-03  9.9531e-04  0:07:14 1885
  2535  7.3230e-03  2.9260e-03  1.6503e-03  7.2745e-03  1.8400e-03  9.8854e-04  0:05:47 1884
  2536  7.3159e-03  2.8976e-03  1.6447e-03  7.2660e-03  1.8425e-03  9.8096e-04  0:04:38 1883
  2537  7.3224e-03  2.8679e-03  1.6381e-03  7.2708e-03  1.8452e-03  9.7359e-04  0:03:42 1882
  2538  7.3397e-03  2.8375e-03  1.6320e-03  7.2863e-03  1.8477e-03  9.6539e-04  0:02:58 1881
  2539  7.3590e-03  2.8035e-03  1.6231e-03  7.3035e-03  1.8501e-03  9.5636e-04  0:02:22 1880

  iter  continuity  x-velocity  y-velocity      energy           k       omega     time/iter
  2540  7.3910e-03  2.7642e-03  1.6161e-03  7.3336e-03  1.8518e-03  9.4851e-04  0:01:53 1879
  2541  7.4242e-03  2.7241e-03  1.6039e-03  7.3649e-03  1.8531e-03  9.4261e-04  0:01:31 1878
  2542  7.4592e-03  2.6824e-03  1.5954e-03  7.3979e-03  1.8543e-03  9.3735e-04  0:01:13 1877
  2543  7.4967e-03  2.6394e-03  1.5821e-03  7.4332e-03  1.8554e-03  9.3264e-04  0:07:13 1876
  2544  7.5261e-03  2.5965e-03  1.5680e-03  7.4601e-03  1.8564e-03  9.2813e-04  0:05:46 1875
  2545  7.5543e-03  2.5539e-03  1.5517e-03  7.4859e-03  1.8568e-03  9.2385e-04  0:04:37 1874
  2546  7.5815e-03  2.5112e-03  1.5321e-03  7.5106e-03  1.8568e-03  9.1902e-04  0:03:41 1873
  2547  7.6128e-03  2.4702e-03  1.5111e-03  7.5396e-03  1.8566e-03  9.1372e-04  0:02:57 1872
  2548  7.6344e-03  2.4287e-03  1.4891e-03  7.5589e-03  1.8565e-03  9.0683e-04  0:02:22 1871
  2549  7.6431e-03  2.3860e-03  1.4680e-03  7.5652e-03  1.8567e-03  8.9834e-04  0:01:53 1870
  2550  7.6449e-03  2.3443e-03  1.4470e-03  7.5648e-03  1.8571e-03  8.9084e-04  0:01:31 1869

  iter  continuity  x-velocity  y-velocity      energy           k       omega     time/iter
  2551  7.6361e-03  2.3045e-03  1.4258e-03  7.5537e-03  1.8576e-03  8.8373e-04  0:01:12 1868
  2552  7.6201e-03  2.2654e-03  1.4036e-03  7.5359e-03  1.8582e-03  8.7634e-04  0:07:11 1867
  2553  7.5966e-03  2.2269e-03  1.3828e-03  7.5107e-03  1.8581e-03  8.6909e-04  0:05:45 1866
  2554  7.5692e-03  2.1897e-03  1.3602e-03  7.4818e-03  1.8569e-03  8.6249e-04  0:04:36 1865
  2555  7.5356e-03  2.1553e-03  1.3388e-03  7.4469e-03  1.8550e-03  8.5582e-04  0:03:40 1864
  2556  7.5027e-03  2.1225e-03  1.3183e-03  7.4132e-03  1.8526e-03  8.4805e-04  0:02:56 1863
  2557  7.4628e-03  2.0908e-03  1.2972e-03  7.3726e-03  1.8491e-03  8.3949e-04  0:02:21 1862
  2558  7.4263e-03  2.0634e-03  1.2763e-03  7.3359e-03  1.8443e-03  8.3034e-04  0:01:53 1861
  2559  7.3925e-03  2.0384e-03  1.2547e-03  7.3024e-03  1.8388e-03  8.2055e-04  0:01:30 1860
  2560  7.3564e-03  2.0144e-03  1.2351e-03  7.2669e-03  1.8317e-03  8.1086e-04  0:01:12 1859
  2561  7.3244e-03  1.9917e-03  1.2164e-03  7.2358e-03  1.8230e-03  8.0193e-04  0:00:58 1858

  iter  continuity  x-velocity  y-velocity      energy           k       omega     time/iter
  2562  7.3021e-03  1.9700e-03  1.1980e-03  7.2149e-03  1.8126e-03  7.9225e-04  0:06:57 1857
  2563  7.2763e-03  1.9491e-03  1.1805e-03  7.1908e-03  1.8006e-03  7.8196e-04  0:05:34 1856
  2564  7.2523e-03  1.9301e-03  1.1642e-03  7.1687e-03  1.7875e-03  7.7142e-04  0:04:27 1855
  2565  7.2360e-03  1.9125e-03  1.1487e-03  7.1546e-03  1.7726e-03  7.6177e-04  0:03:33 1854
  2566  7.2261e-03  1.8967e-03  1.1350e-03  7.1472e-03  1.7564e-03  7.5267e-04  0:02:51 1853
  2567  7.2234e-03  1.8827e-03  1.1224e-03  7.1471e-03  1.7390e-03  7.4327e-04  0:02:16 1852
  2568  7.2244e-03  1.8705e-03  1.1116e-03  7.1508e-03  1.7206e-03  7.3467e-04  0:01:49 1851
  2569  7.2283e-03  1.8588e-03  1.1028e-03  7.1574e-03  1.7025e-03  7.2713e-04  0:01:27 1850
  2570  7.2346e-03  1.8466e-03  1.0957e-03  7.1664e-03  1.6852e-03  7.1925e-04  0:01:10 1849
  2571  7.2406e-03  1.8344e-03  1.0909e-03  7.1750e-03  1.6688e-03  7.1143e-04  0:00:56 1848
  2572  7.2466e-03  1.8232e-03  1.0883e-03  7.1836e-03  1.6528e-03  7.0352e-04  0:06:54 1847

  iter  continuity  x-velocity  y-velocity      energy           k       omega     time/iter
  2573  7.2521e-03  1.8115e-03  1.0880e-03  7.1914e-03  1.6367e-03  6.9630e-04  0:05:31 1846
  2574  7.2507e-03  1.8004e-03  1.0891e-03  7.1919e-03  1.6210e-03  6.8928e-04  0:04:25 1845
  2575  7.2429e-03  1.7900e-03  1.0918e-03  7.1858e-03  1.6058e-03  6.8187e-04  0:03:32 1844
  2576  7.2295e-03  1.7818e-03  1.0962e-03  7.1738e-03  1.5910e-03  6.7442e-04  0:02:49 1843
  2577  7.2121e-03  1.7745e-03  1.1025e-03  7.1576e-03  1.5777e-03  6.6743e-04  0:02:15 1842
  2578  7.1835e-03  1.7682e-03  1.1110e-03  7.1299e-03  1.5649e-03  6.6106e-04  0:01:48 1841
  2579  7.1454e-03  1.7595e-03  1.1208e-03  7.0924e-03  1.5524e-03  6.5483e-04  0:01:26 1840
  2580  7.0917e-03  1.7487e-03  1.1314e-03  7.0389e-03  1.5407e-03  6.4885e-04  0:01:09 1839
  2581  7.0247e-03  1.7389e-03  1.1433e-03  6.9721e-03  1.5300e-03  6.4326e-04  0:07:03 1838
  2582  6.9460e-03  1.7299e-03  1.1562e-03  6.8932e-03  1.5205e-03  6.3775e-04  0:05:38 1837
  2583  6.8566e-03  1.7181e-03  1.1697e-03  6.8033e-03  1.5121e-03  6.3166e-04  0:04:30 1836

  iter  continuity  x-velocity  y-velocity      energy           k       omega     time/iter
  2584  6.7549e-03  1.7041e-03  1.1833e-03  6.7009e-03  1.5047e-03  6.2540e-04  0:03:36 1835
  2585  6.6446e-03  1.6893e-03  1.1963e-03  6.5896e-03  1.4985e-03  6.2033e-04  0:02:53 1834
  2586  6.5259e-03  1.6753e-03  1.2070e-03  6.4697e-03  1.4931e-03  6.1511e-04  0:02:18 1833
  2587  6.4028e-03  1.6630e-03  1.2186e-03  6.3452e-03  1.4886e-03  6.0938e-04  0:01:50 1832
  2588  6.2756e-03  1.6499e-03  1.2299e-03  6.2163e-03  1.4845e-03  6.0385e-04  0:01:28 1831
  2589  6.1442e-03  1.6359e-03  1.2406e-03  6.0831e-03  1.4809e-03  5.9840e-04  0:01:11 1830
  2590  6.0124e-03  1.6226e-03  1.2494e-03  5.9492e-03  1.4781e-03  5.9226e-04  0:00:56 1829
  2591  5.8826e-03  1.6095e-03  1.2573e-03  5.8172e-03  1.4758e-03  5.8754e-04  0:06:51 1828
  2592  5.7562e-03  1.5952e-03  1.2637e-03  5.6885e-03  1.4740e-03  5.8260e-04  0:05:28 1827
  2593  5.6372e-03  1.5806e-03  1.2688e-03  5.5670e-03  1.4733e-03  5.7662e-04  0:04:23 1826
  2594  5.5281e-03  1.5663e-03  1.2723e-03  5.4554e-03  1.4733e-03  5.7233e-04  0:03:30 1825

  iter  continuity  x-velocity  y-velocity      energy           k       omega     time/iter
  2595  5.4332e-03  1.5526e-03  1.2744e-03  5.3580e-03  1.4738e-03  5.6813e-04  0:02:48 1824
  2596  5.3558e-03  1.5393e-03  1.2741e-03  5.2782e-03  1.4750e-03  5.6434e-04  0:02:14 1823
  2597  5.2995e-03  1.5252e-03  1.2718e-03  5.2196e-03  1.4766e-03  5.6062e-04  0:01:47 1822
  2598  5.2654e-03  1.5107e-03  1.2669e-03  5.1834e-03  1.4785e-03  5.5701e-04  0:01:26 1821
  2599  5.2540e-03  1.4958e-03  1.2611e-03  5.1703e-03  1.4806e-03  5.5264e-04  0:01:09 1820
  2600  5.2672e-03  1.4800e-03  1.2535e-03  5.1820e-03  1.4827e-03  5.4899e-04  0:00:55 1819
  2601  5.3043e-03  1.4628e-03  1.2451e-03  5.2180e-03  1.4847e-03  5.4492e-04  0:06:47 1818
  2602  5.3639e-03  1.4454e-03  1.2356e-03  5.2768e-03  1.4869e-03  5.4048e-04  0:05:26 1817
  2603  5.4432e-03  1.4280e-03  1.2246e-03  5.3556e-03  1.4889e-03  5.3706e-04  0:04:20 1816
  2604  5.5401e-03  1.4113e-03  1.2123e-03  5.4523e-03  1.4911e-03  5.3325e-04  0:03:28 1815
  2605  5.6520e-03  1.3940e-03  1.1982e-03  5.5644e-03  1.4931e-03  5.2936e-04  0:02:47 1814

  iter  continuity  x-velocity  y-velocity      energy           k       omega     time/iter
  2606  5.7753e-03  1.3782e-03  1.1833e-03  5.6880e-03  1.4949e-03  5.2650e-04  0:02:13 1813
  2607  5.9056e-03  1.3632e-03  1.1668e-03  5.8189e-03  1.4966e-03  5.2356e-04  0:01:46 1812
  2608  6.0394e-03  1.3492e-03  1.1491e-03  5.9534e-03  1.4982e-03  5.2050e-04  0:01:25 1811
  2609  6.1719e-03  1.3365e-03  1.1305e-03  6.0867e-03  1.4993e-03  5.1744e-04  0:01:08 1810
  2610  6.2991e-03  1.3247e-03  1.1111e-03  6.2148e-03  1.5002e-03  5.1430e-04  0:06:56 1809
  2611  6.4184e-03  1.3118e-03  1.0911e-03  6.3352e-03  1.5007e-03  5.1138e-04  0:05:33 1808
  2612  6.5261e-03  1.2961e-03  1.0707e-03  6.4441e-03  1.5009e-03  5.0862e-04  0:04:26 1807
  2613  6.6198e-03  1.2793e-03  1.0503e-03  6.5390e-03  1.5006e-03  5.0565e-04  0:03:33 1806
  2614  6.6963e-03  1.2633e-03  1.0298e-03  6.6168e-03  1.4996e-03  5.0232e-04  0:02:50 1805
  2615  6.7541e-03  1.2486e-03  1.0097e-03  6.6760e-03  1.4980e-03  4.9893e-04  0:02:16 1804
  2616  6.7931e-03  1.2352e-03  9.9019e-04  6.7164e-03  1.4956e-03  4.9523e-04  0:01:49 1803

  iter  continuity  x-velocity  y-velocity      energy           k       omega     time/iter
  2617  6.8087e-03  1.2239e-03  9.7151e-04  6.7334e-03  1.4925e-03  4.9119e-04  0:01:27 1802
  2618  6.8040e-03  1.2137e-03  9.5388e-04  6.7302e-03  1.4888e-03  4.8702e-04  0:01:10 1801
  2619  6.7800e-03  1.2071e-03  9.3672e-04  6.7077e-03  1.4841e-03  4.8331e-04  0:06:56 1800
  2620  6.7352e-03  1.2013e-03  9.2151e-04  6.6644e-03  1.4782e-03  4.7982e-04  0:05:32 1799
  2621  6.6625e-03  1.1961e-03  9.0777e-04  6.5934e-03  1.4724e-03  4.7594e-04  0:04:26 1798
  2622  6.5641e-03  1.1903e-03  8.9634e-04  6.4965e-03  1.4661e-03  4.7248e-04  0:03:32 1797
  2623  6.4488e-03  1.1867e-03  8.8650e-04  6.3830e-03  1.4594e-03  4.6882e-04  0:02:50 1796
  2624  6.3194e-03  1.1830e-03  8.7821e-04  6.2552e-03  1.4521e-03  4.6535e-04  0:02:16 1795
  2625  6.1768e-03  1.1741e-03  8.7156e-04  6.1142e-03  1.4447e-03  4.6138e-04  0:01:49 1794
  2626  6.0224e-03  1.1628e-03  8.6648e-04  5.9616e-03  1.4368e-03  4.5747e-04  0:01:27 1793
  2627  5.8612e-03  1.1528e-03  8.6275e-04  5.8021e-03  1.4283e-03  4.5403e-04  0:01:09 1792

  iter  continuity  x-velocity  y-velocity      energy           k       omega     time/iter
  2628  5.6967e-03  1.1463e-03  8.5993e-04  5.6391e-03  1.4190e-03  4.5075e-04  0:00:56 1791
  2629  5.5312e-03  1.1397e-03  8.5816e-04  5.4754e-03  1.4092e-03  4.4767e-04  0:06:42 1790
  2630  5.3696e-03  1.1302e-03  8.5677e-04  5.3154e-03  1.3989e-03  4.4515e-04  0:05:22 1789
  2631  5.2151e-03  1.1221e-03  8.5578e-04  5.1627e-03  1.3881e-03  4.4205e-04  0:04:17 1788
  2632  5.0721e-03  1.1170e-03  8.5526e-04  5.0214e-03  1.3770e-03  4.3831e-04  0:03:26 1787
  2633  4.9435e-03  1.1147e-03  8.5488e-04  4.8945e-03  1.3653e-03  4.3555e-04  0:02:44 1786
  2634  4.8300e-03  1.1130e-03  8.5477e-04  4.7826e-03  1.3534e-03  4.3306e-04  0:02:11 1785
  2635  4.7299e-03  1.1126e-03  8.5468e-04  4.6841e-03  1.3414e-03  4.3005e-04  0:01:45 1784
  2636  4.6414e-03  1.1144e-03  8.5430e-04  4.5970e-03  1.3292e-03  4.2770e-04  0:01:24 1783
  2637  4.5733e-03  1.1186e-03  8.5322e-04  4.5303e-03  1.3170e-03  4.2539e-04  0:01:07 1782
  2638  4.5221e-03  1.1103e-03  8.5166e-04  4.4804e-03  1.3049e-03  4.2322e-04  0:00:54 1781

  iter  continuity  x-velocity  y-velocity      energy           k       omega     time/iter
  2639  4.4846e-03  1.0993e-03  8.4974e-04  4.4438e-03  1.2931e-03  4.2103e-04  0:06:39 1780
  2640  4.4583e-03  1.0908e-03  8.4747e-04  4.4183e-03  1.2816e-03  4.1851e-04  0:05:19 1779
  2641  4.4388e-03  1.0853e-03  8.4487e-04  4.3994e-03  1.2702e-03  4.1659e-04  0:04:15 1778
  2642  4.4239e-03  1.0834e-03  8.4176e-04  4.3849e-03  1.2595e-03  4.1475e-04  0:03:24 1777
  2643  4.4099e-03  1.0828e-03  8.3809e-04  4.3712e-03  1.2490e-03  4.1274e-04  0:02:43 1776
  2644  4.3944e-03  1.0762e-03  8.3363e-04  4.3558e-03  1.2387e-03  4.1102e-04  0:02:10 1775
  2645  4.3759e-03  1.0684e-03  8.2824e-04  4.3372e-03  1.2286e-03  4.1002e-04  0:07:39 1774
  2646  4.3524e-03  1.0607e-03  8.2295e-04  4.3135e-03  1.2189e-03  4.0899e-04  0:06:07 1773
  2647  4.3207e-03  1.0513e-03  8.1772e-04  4.2814e-03  1.2092e-03  4.0810e-04  0:04:53 1772
  2648  4.2771e-03  1.0419e-03  8.1144e-04  4.2374e-03  1.2001e-03  4.0757e-04  0:03:55 1771
  2649  4.2215e-03  1.0353e-03  8.0371e-04  4.1814e-03  1.1917e-03  4.0712e-04  0:03:08 1770

  iter  continuity  x-velocity  y-velocity      energy           k       omega     time/iter
  2650  4.1537e-03  1.0305e-03  7.9488e-04  4.1130e-03  1.1841e-03  4.0670e-04  0:02:30 1769
  2651  4.0743e-03  1.0285e-03  7.8538e-04  4.0330e-03  1.1768e-03  4.0627e-04  0:02:00 1768
  2652  3.9844e-03  1.0296e-03  7.7539e-04  3.9426e-03  1.1698e-03  4.0590e-04  0:01:36 1767
  2653  3.8845e-03  1.0331e-03  7.6503e-04  3.8421e-03  1.1631e-03  4.0577e-04  0:01:17 1766
  2654  3.7748e-03  1.0358e-03  7.5428e-04  3.7318e-03  1.1562e-03  4.0572e-04  0:06:54 1765
  2655  3.6578e-03  1.0375e-03  7.4323e-04  3.6141e-03  1.1497e-03  4.0567e-04  0:05:31 1764
  2656  3.5353e-03  1.0398e-03  7.3113e-04  3.4911e-03  1.1431e-03  4.0554e-04  0:04:25 1763
  2657  3.4101e-03  1.0375e-03  7.1903e-04  3.3653e-03  1.1365e-03  4.0538e-04  0:03:32 1762
  2658  3.2861e-03  1.0342e-03  7.0624e-04  3.2407e-03  1.1296e-03  4.0514e-04  0:02:49 1761
  2659  3.1672e-03  1.0287e-03  6.9340e-04  3.1214e-03  1.1228e-03  4.0477e-04  0:02:15 1760
  2660  3.0572e-03  1.0252e-03  6.8050e-04  3.0108e-03  1.1157e-03  4.0443e-04  0:01:48 1759

  iter  continuity  x-velocity  y-velocity      energy           k       omega     time/iter
  2661  2.9599e-03  1.0225e-03  6.6742e-04  2.9131e-03  1.1089e-03  4.0392e-04  0:01:27 1758
  2662  2.8788e-03  1.0237e-03  6.5429e-04  2.8317e-03  1.1024e-03  4.0292e-04  0:01:09 1757
  2663  2.8165e-03  1.0203e-03  6.4089e-04  2.7693e-03  1.0964e-03  4.0125e-04  0:06:47 1756
  2664  2.7767e-03  1.0201e-03  6.2783e-04  2.7295e-03  1.0910e-03  4.0081e-04  0:05:25 1755
  2665  2.7610e-03  1.0192e-03  6.1507e-04  2.7140e-03  1.0857e-03  4.0044e-04  0:04:20 1754
  2666  2.7690e-03  1.0165e-03  6.0383e-04  2.7222e-03  1.0808e-03  3.9920e-04  0:03:28 1753
  2667  2.7999e-03  1.0120e-03  5.9257e-04  2.7535e-03  1.0761e-03  3.9803e-04  0:02:46 1752
  2668  2.8503e-03  1.0031e-03  5.8106e-04  2.8043e-03  1.0717e-03  3.9734e-04  0:02:13 1751
  2669  2.9169e-03  9.9580e-04  5.7020e-04  2.8714e-03  1.0674e-03  3.9558e-04  0:01:46 1750
  2670  2.9958e-03  9.8982e-04  5.6066e-04  2.9509e-03  1.0633e-03  3.9416e-04  0:01:25 1749
  2671  3.0840e-03  9.8479e-04  5.5090e-04  3.0396e-03  1.0596e-03  3.9320e-04  0:01:08 1748

  iter  continuity  x-velocity  y-velocity      energy           k       omega     time/iter
  2672  3.1773e-03  9.8220e-04  5.4089e-04  3.1335e-03  1.0564e-03  3.9194e-04  0:06:44 1747
  2673  3.2722e-03  9.7934e-04  5.3125e-04  3.2288e-03  1.0532e-03  3.9068e-04  0:05:23 1746
  2674  3.3658e-03  9.7915e-04  5.2246e-04  3.3229e-03  1.0499e-03  3.8929e-04  0:04:18 1745
  2675  3.4551e-03  9.8096e-04  5.1476e-04  3.4126e-03  1.0469e-03  3.8810e-04  0:03:26 1744
  2676  3.5373e-03  9.8039e-04  5.0810e-04  3.4951e-03  1.0438e-03  3.8700e-04  0:02:45 1743
  2677  3.6109e-03  9.7440e-04  5.0227e-04  3.5691e-03  1.0409e-03  3.8584e-04  0:02:12 1742
  2678  3.6754e-03  9.6742e-04  4.9715e-04  3.6340e-03  1.0383e-03  3.8485e-04  0:01:45 1741
  2679  3.7291e-03  9.5804e-04  4.9257e-04  3.6880e-03  1.0362e-03  3.8392e-04  0:01:24 1740
  2680  3.7721e-03  9.5107e-04  4.8850e-04  3.7314e-03  1.0342e-03  3.8306e-04  0:01:07 1739
  2681  3.8046e-03  9.4665e-04  4.8492e-04  3.7643e-03  1.0326e-03  3.8244e-04  0:06:42 1738
  2682  3.8263e-03  9.4133e-04  4.8150e-04  3.7864e-03  1.0313e-03  3.8215e-04  0:05:21 1737

  iter  continuity  x-velocity  y-velocity      energy           k       omega     time/iter
  2683  3.8373e-03  9.3556e-04  4.7823e-04  3.7979e-03  1.0307e-03  3.8172e-04  0:04:17 1736
  2684  3.8381e-03  9.2931e-04  4.7539e-04  3.7992e-03  1.0309e-03  3.8120e-04  0:03:25 1735
  2685  3.8295e-03  9.2376e-04  4.7293e-04  3.7910e-03  1.0315e-03  3.8034e-04  0:02:44 1734
  2686  3.8122e-03  9.1808e-04  4.7066e-04  3.7740e-03  1.0322e-03  3.8006e-04  0:02:11 1733
  2687  3.7875e-03  9.1341e-04  4.6856e-04  3.7497e-03  1.0332e-03  3.7971e-04  0:01:45 1732
  2688  3.7564e-03  9.0995e-04  4.6648e-04  3.7190e-03  1.0342e-03  3.7910e-04  0:07:10 1731
  2689  3.7202e-03  9.0736e-04  4.6456e-04  3.6832e-03  1.0353e-03  3.7846e-04  0:05:44 1730
  2690  3.6798e-03  9.0557e-04  4.6223e-04  3.6431e-03  1.0362e-03  3.7777e-04  0:04:35 1729
  2691  3.6365e-03  9.0455e-04  4.5942e-04  3.6001e-03  1.0371e-03  3.7702e-04  0:03:40 1728
  2692  3.5915e-03  9.0280e-04  4.5647e-04  3.5554e-03  1.0378e-03  3.7641e-04  0:02:56 1727
  2693  3.5460e-03  8.9740e-04  4.5334e-04  3.5102e-03  1.0381e-03  3.7566e-04  0:02:21 1726

  iter  continuity  x-velocity  y-velocity      energy           k       omega     time/iter
  2694  3.5015e-03  8.9135e-04  4.5011e-04  3.4659e-03  1.0381e-03  3.7463e-04  0:01:52 1725
  2695  3.4589e-03  8.8600e-04  4.4687e-04  3.4235e-03  1.0380e-03  3.7295e-04  0:01:30 1724
  2696  3.4189e-03  8.8169e-04  4.4395e-04  3.3836e-03  1.0376e-03  3.7188e-04  0:01:12 1723
  2697  3.3827e-03  8.7677e-04  4.4093e-04  3.3475e-03  1.0366e-03  3.7060e-04  0:06:42 1722
  2698  3.3506e-03  8.7344e-04  4.3746e-04  3.3154e-03  1.0350e-03  3.6920e-04  0:05:21 1721
  2699  3.3231e-03  8.7145e-04  4.3371e-04  3.2879e-03  1.0337e-03  3.6771e-04  0:04:17 1720
  2700  3.3007e-03  8.7068e-04  4.3009e-04  3.2654e-03  1.0324e-03  3.6617e-04  0:03:25 1719
  2701  3.2833e-03  8.7177e-04  4.2627e-04  3.2480e-03  1.0307e-03  3.6464e-04  0:02:44 1718
  2702  3.2710e-03  8.7081e-04  4.2219e-04  3.2356e-03  1.0289e-03  3.6326e-04  0:02:11 1717
  2703  3.2630e-03  8.6596e-04  4.1781e-04  3.2276e-03  1.0270e-03  3.6171e-04  0:01:45 1716
  2704  3.2594e-03  8.6119e-04  4.1335e-04  3.2238e-03  1.0252e-03  3.5960e-04  0:01:24 1715

  iter  continuity  x-velocity  y-velocity      energy           k       omega     time/iter
  2705  3.2597e-03  8.5461e-04  4.0883e-04  3.2240e-03  1.0234e-03  3.5741e-04  0:01:07 1714
  2706  3.2632e-03  8.4666e-04  4.0451e-04  3.2274e-03  1.0217e-03  3.5574e-04  0:06:36 1713
  2707  3.2691e-03  8.3719e-04  4.0025e-04  3.2332e-03  1.0198e-03  3.5368e-04  0:05:17 1712
  2708  3.2768e-03  8.2693e-04  3.9602e-04  3.2409e-03  1.0177e-03  3.5165e-04  0:04:13 1711
  2709  3.2860e-03  8.1646e-04  3.9195e-04  3.2499e-03  1.0155e-03  3.4985e-04  0:03:23 1710
  2710  3.2958e-03  8.0766e-04  3.8788e-04  3.2595e-03  1.0132e-03  3.4786e-04  0:02:42 1709
  2711  3.3052e-03  8.0038e-04  3.8358e-04  3.2688e-03  1.0108e-03  3.4570e-04  0:02:09 1708
  2712  3.3135e-03  7.9400e-04  3.7895e-04  3.2771e-03  1.0081e-03  3.4351e-04  0:13:06 1707
  2713  3.3202e-03  7.8948e-04  3.7419e-04  3.2836e-03  1.0052e-03  3.4112e-04  0:16:10 1706
  2714  3.3244e-03  7.8633e-04  3.6980e-04  3.2876e-03  1.0022e-03  3.3853e-04  0:12:55 1705
  2715  3.3252e-03  7.8205e-04  3.6579e-04  3.2882e-03  9.9902e-04  3.3567e-04  0:10:20 1704

  iter  continuity  x-velocity  y-velocity      energy           k       omega     time/iter
  2716  3.3220e-03  7.7823e-04  3.6202e-04  3.2849e-03  9.9566e-04  3.3279e-04  0:08:16 1703
  2717  3.3142e-03  7.7945e-04  3.5825e-04  3.2770e-03  9.9192e-04  3.2976e-04  0:06:36 1702
  2718  3.3015e-03  7.8243e-04  3.5476e-04  3.2641e-03  9.8790e-04  3.2682e-04  0:05:17 1701
  2719  3.2832e-03  7.8804e-04  3.5136e-04  3.2456e-03  9.8355e-04  3.2389e-04  0:04:13 1700
  2720  3.2585e-03  7.8761e-04  3.4811e-04  3.2208e-03  9.7886e-04  3.2093e-04  0:03:23 1699
  2721  3.2275e-03  7.8506e-04  3.4531e-04  3.1898e-03  9.7384e-04  3.1788e-04  0:02:42 1698
  2722  3.1905e-03  7.8386e-04  3.4300e-04  3.1526e-03  9.6861e-04  3.1498e-04  0:07:49 1697
  2723  3.1470e-03  7.8375e-04  3.4135e-04  3.1090e-03  9.6300e-04  3.1221e-04  0:06:15 1696
  2724  3.0977e-03  7.7972e-04  3.3993e-04  3.0594e-03  9.5723e-04  3.0953e-04  0:05:00 1695
  2725  3.0430e-03  7.7481e-04  3.3885e-04  3.0046e-03  9.5122e-04  3.0713e-04  0:04:00 1694
  2726  2.9835e-03  7.7020e-04  3.3812e-04  2.9448e-03  9.4516e-04  3.0494e-04  0:03:12 1693

  iter  continuity  x-velocity  y-velocity      energy           k       omega     time/iter
  2727  2.9193e-03  7.6405e-04  3.3778e-04  2.8805e-03  9.3924e-04  3.0288e-04  0:02:33 1692
  2728  2.8516e-03  7.6000e-04  3.3745e-04  2.8126e-03  9.3327e-04  3.0083e-04  0:02:02 1691
  2729  2.7814e-03  7.5860e-04  3.3752e-04  2.7421e-03  9.2739e-04  2.9884e-04  0:01:38 1690
  2730  2.7098e-03  7.6043e-04  3.3783e-04  2.6702e-03  9.2212e-04  2.9692e-04  0:06:56 1689
  2731  2.6373e-03  7.5295e-04  3.3815e-04  2.5974e-03  9.1705e-04  2.9514e-04  0:05:33 1688
  2732  2.5661e-03  7.5150e-04  3.3865e-04  2.5259e-03  9.1216e-04  2.9352e-04  0:04:26 1687
  2733  2.4978e-03  7.6070e-04  3.3914e-04  2.4571e-03  9.0732e-04  2.9197e-04  0:03:33 1686
  2734  2.4329e-03  7.7067e-04  3.3924e-04  2.3917e-03  9.0269e-04  2.9058e-04  0:02:50 1685
  2735  2.3725e-03  7.8081e-04  3.3942e-04  2.3308e-03  8.9829e-04  2.8932e-04  0:02:16 1684
  2736  2.3175e-03  7.9486e-04  3.3972e-04  2.2753e-03  8.9391e-04  2.8808e-04  0:01:49 1683
  2737  2.2685e-03  8.0881e-04  3.3973e-04  2.2259e-03  8.8942e-04  2.8715e-04  0:01:27 1682

  iter  continuity  x-velocity  y-velocity      energy           k       omega     time/iter
  2738  2.2262e-03  8.1966e-04  3.3988e-04  2.1832e-03  8.8472e-04  2.8630e-04  0:06:46 1681
  2739  2.1901e-03  8.1877e-04  3.4028e-04  2.1470e-03  8.7980e-04  2.8600e-04  0:05:24 1680
  2740  2.1621e-03  8.1979e-04  3.4226e-04  2.1189e-03  8.7463e-04  2.8594e-04  0:04:19 1679
  2741  2.1416e-03  8.1800e-04  3.4265e-04  2.0982e-03  8.6924e-04  2.8587e-04  0:03:27 1678
  2742  2.1286e-03  8.1782e-04  3.4075e-04  2.0852e-03  8.6357e-04  2.8586e-04  0:02:46 1677
  2743  2.1220e-03  8.1740e-04  3.3926e-04  2.0786e-03  8.5763e-04  2.8582e-04  0:02:13 1676
  2744  2.1207e-03  8.1683e-04  3.3767e-04  2.0773e-03  8.5140e-04  2.8626e-04  0:01:46 1675
  2745  2.1240e-03  8.1697e-04  3.3555e-04  2.0806e-03  8.4493e-04  2.8668e-04  0:01:25 1674
  2746  2.1319e-03  8.2510e-04  3.3346e-04  2.0886e-03  8.3817e-04  2.8745e-04  0:06:42 1673
  2747  2.1424e-03  8.3458e-04  3.3230e-04  2.0991e-03  8.3127e-04  2.8867e-04  0:05:22 1672
  2748  2.1543e-03  8.4113e-04  3.3217e-04  2.1111e-03  8.2411e-04  2.8999e-04  0:04:17 1671

  iter  continuity  x-velocity  y-velocity      energy           k       omega     time/iter
  2749  2.1678e-03  8.5200e-04  3.3279e-04  2.1247e-03  8.1683e-04  2.9110e-04  0:03:26 1670
  2750  2.1835e-03  8.7553e-04  3.3333e-04  2.1403e-03  8.0934e-04  2.9241e-04  0:02:44 1669
  2751  2.1988e-03  8.9905e-04  3.3238e-04  2.1552e-03  8.0175e-04  2.9411e-04  0:02:11 1668
  2752  2.2085e-03  8.9096e-04  3.3037e-04  2.1646e-03  7.9398e-04  2.9565e-04  0:07:18 1667
  2753  2.2199e-03  8.9028e-04  3.3073e-04  2.1757e-03  7.8611e-04  2.9722e-04  0:11:24 1666
  2754  2.2295e-03  8.8968e-04  3.3328e-04  2.1847e-03  7.7821e-04  2.9872e-04  0:09:07 1665
  2755  2.2396e-03  9.0307e-04  3.3478e-04  2.1941e-03  7.7035e-04  2.9997e-04  0:07:17 1664
  2756  2.2468e-03  9.1350e-04  3.3378e-04  2.2005e-03  7.6252e-04  3.0136e-04  0:05:49 1663
  2757  2.2521e-03  9.1398e-04  3.3271e-04  2.2049e-03  7.5476e-04  3.0246e-04  0:10:12 1662
  2758  2.2586e-03  9.3416e-04  3.3332e-04  2.2103e-03  7.4716e-04  3.0346e-04  0:08:09 1661
  2759  2.2620e-03  9.3942e-04  3.3183e-04  2.2128e-03  7.3963e-04  3.0485e-04  0:06:31 1660

  iter  continuity  x-velocity  y-velocity      energy           k       omega     time/iter
  2760  2.2611e-03  9.2072e-04  3.3030e-04  2.2114e-03  7.3228e-04  3.0611e-04  0:05:13 1659
  2761  2.2635e-03  9.0659e-04  3.2929e-04  2.2133e-03  7.2509e-04  3.0762e-04  0:04:10 1658
  2762  2.2663e-03  9.0651e-04  3.2949e-04  2.2155e-03  7.1796e-04  3.0898e-04  0:03:20 1657
  2763  2.2701e-03  8.9419e-04  3.2921e-04  2.2185e-03  7.1094e-04  3.1016e-04  0:08:11 1656
  2764  2.2784e-03  8.9668e-04  3.2721e-04  2.2260e-03  7.0399e-04  3.1123e-04  0:06:33 1655
  2765  2.2886e-03  8.9137e-04  3.2633e-04  2.2355e-03  6.9723e-04  3.1226e-04  0:05:14 1654
  2766  2.3028e-03  8.9074e-04  3.2648e-04  2.2489e-03  6.9076e-04  3.1290e-04  0:04:11 1653
  2767  2.3210e-03  8.9047e-04  3.2666e-04  2.2662e-03  6.8454e-04  3.1398e-04  0:03:21 1652
  2768  2.3435e-03  8.9283e-04  3.2603e-04  2.2879e-03  6.7875e-04  3.1496e-04  0:08:11 1651
  2769  2.3698e-03  8.9156e-04  3.2455e-04  2.3134e-03  6.7334e-04  3.1566e-04  0:06:32 1650
  2770  2.4003e-03  8.9530e-04  3.2283e-04  2.3430e-03  6.6838e-04  3.1621e-04  0:05:14 1649

  iter  continuity  x-velocity  y-velocity      energy           k       omega     time/iter
  2771  2.4344e-03  9.0189e-04  3.2031e-04  2.3763e-03  6.6402e-04  3.1649e-04  0:04:11 1648
  2772  2.4726e-03  9.1470e-04  3.1812e-04  2.4137e-03  6.6011e-04  3.1667e-04  0:03:20 1647
  2773  2.5115e-03  9.2150e-04  3.1659e-04  2.4519e-03  6.5651e-04  3.1669e-04  0:02:40 1646
  2774  2.5523e-03  9.2016e-04  3.1686e-04  2.4922e-03  6.5317e-04  3.1657e-04  0:07:37 1645
  2775  2.5945e-03  9.1556e-04  3.1778e-04  2.5337e-03  6.5015e-04  3.1636e-04  0:06:05 1644
  2776  2.6379e-03  9.1972e-04  3.1698e-04  2.5766e-03  6.4731e-04  3.1599e-04  0:04:52 1643
  2777  2.6815e-03  9.2339e-04  3.1420e-04  2.6196e-03  6.4480e-04  3.1564e-04  0:03:54 1642
  2778  2.7257e-03  9.3770e-04  3.1236e-04  2.6631e-03  6.4244e-04  3.1521e-04  0:03:07 1641
  2779  2.7698e-03  9.5736e-04  3.1202e-04  2.7067e-03  6.4040e-04  3.1493e-04  0:07:57 1640
  2780  2.8114e-03  9.7461e-04  3.1138e-04  2.7479e-03  6.3854e-04  3.1454e-04  0:06:22 1639
  2781  2.8502e-03  9.7437e-04  3.1243e-04  2.7863e-03  6.3696e-04  3.1400e-04  0:05:05 1638

  iter  continuity  x-velocity  y-velocity      energy           k       omega     time/iter
  2782  2.8870e-03  9.6529e-04  3.1206e-04  2.8228e-03  6.3554e-04  3.1326e-04  0:04:04 1637
  2783  2.9221e-03  9.6090e-04  3.1099e-04  2.8575e-03  6.3425e-04  3.1275e-04  0:08:42 1636
  2784  2.9560e-03  9.6433e-04  3.1199e-04  2.8907e-03  6.3309e-04  3.1200e-04  0:06:58 1635
  2785  2.9882e-03  9.7625e-04  3.1152e-04  2.9222e-03  6.3217e-04  3.1133e-04  0:05:34 1634
  2786  3.0145e-03  9.6637e-04  3.1014e-04  2.9480e-03  6.3151e-04  3.1075e-04  0:04:27 1633
  2787  3.0408e-03  9.7414e-04  3.0845e-04  2.9737e-03  6.3114e-04  3.0990e-04  0:03:33 1632
  2788  3.0648e-03  9.7935e-04  3.0791e-04  2.9967e-03  6.3104e-04  3.0866e-04  0:08:17 1631
  2789  3.0862e-03  9.9125e-04  3.0893e-04  3.0171e-03  6.3100e-04  3.0742e-04  0:06:37 1630
  2790  3.1045e-03  9.9928e-04  3.1135e-04  3.0342e-03  6.3125e-04  3.0631e-04  0:05:18 1629
  2791  3.1146e-03  9.6556e-04  3.1200e-04  3.0438e-03  6.3149e-04  3.0492e-04  0:04:14 1628
  2792  3.1206e-03  9.0849e-04  3.1021e-04  3.0499e-03  6.3170e-04  3.0344e-04  0:03:23 1627

  iter  continuity  x-velocity  y-velocity      energy           k       omega     time/iter
  2793  3.1277e-03  8.9318e-04  3.0784e-04  3.0571e-03  6.3189e-04  3.0186e-04  0:02:42 1626
  2794  3.1344e-03  8.9329e-04  3.0620e-04  3.0632e-03  6.3200e-04  3.0007e-04  0:07:35 1625
  2795  3.1393e-03  8.8993e-04  3.0515e-04  3.0674e-03  6.3207e-04  2.9841e-04  0:06:04 1624
  2796  3.1429e-03  8.8805e-04  3.0455e-04  3.0701e-03  6.3207e-04  2.9697e-04  0:04:51 1623
  2797  3.1449e-03  8.8394e-04  3.0683e-04  3.0710e-03  6.3197e-04  2.9557e-04  0:03:52 1622
  2798  3.1444e-03  8.6898e-04  3.0912e-04  3.0697e-03  6.3181e-04  2.9439e-04  0:03:06 1621
  2799  3.1431e-03  8.6564e-04  3.1144e-04  3.0679e-03  6.3151e-04  2.9319e-04  0:07:53 1620
  2800  3.1428e-03  8.7308e-04  3.1368e-04  3.0671e-03  6.3107e-04  2.9205e-04  0:06:18 1619
  2801  3.1420e-03  8.7819e-04  3.1632e-04  3.0656e-03  6.3052e-04  2.9094e-04  0:05:02 1618
  2802  3.1401e-03  8.8011e-04  3.1791e-04  3.0631e-03  6.3005e-04  2.8986e-04  0:04:02 1617
  2803  3.1380e-03  8.7852e-04  3.1890e-04  3.0604e-03  6.2954e-04  2.8887e-04  0:03:13 1616

  iter  continuity  x-velocity  y-velocity      energy           k       omega     time/iter
  2804  3.1367e-03  8.8854e-04  3.1976e-04  3.0586e-03  6.2902e-04  2.8793e-04  0:02:34 1615
  2805  3.1334e-03  8.8525e-04  3.2143e-04  3.0551e-03  6.2845e-04  2.8702e-04  0:07:26 1614
  2806  3.1300e-03  8.6117e-04  3.2422e-04  3.0515e-03  6.2786e-04  2.8611e-04  0:05:57 1613
  2807  3.1273e-03  8.5094e-04  3.2870e-04  3.0486e-03  6.2728e-04  2.8539e-04  0:04:45 1612
  2808  3.1259e-03  8.5214e-04  3.3298e-04  3.0470e-03  6.2670e-04  2.8490e-04  0:03:48 1611
  2809  3.1250e-03  8.5188e-04  3.3582e-04  3.0459e-03  6.2612e-04  2.8442e-04  0:03:02 1610
  2810  3.1257e-03  8.8120e-04  3.3761e-04  3.0466e-03  6.2551e-04  2.8405e-04  0:07:48 1609
  2811  3.1249e-03  8.9093e-04  3.4090e-04  3.0457e-03  6.2493e-04  2.8376e-04  0:06:14 1608
  2812  3.1255e-03  8.8986e-04  3.4378e-04  3.0464e-03  6.2443e-04  2.8351e-04  0:04:59 1607
  2813  3.1263e-03  8.9048e-04  3.4602e-04  3.0471e-03  6.2407e-04  2.8329e-04  0:03:59 1606
  2814  3.1285e-03  8.9214e-04  3.4902e-04  3.0491e-03  6.2367e-04  2.8287e-04  0:03:11 1605

  iter  continuity  x-velocity  y-velocity      energy           k       omega     time/iter
  2815  3.1293e-03  8.9564e-04  3.5106e-04  3.0499e-03  6.2317e-04  2.8251e-04  0:07:54 1604
  2816  3.1311e-03  8.9450e-04  3.5409e-04  3.0517e-03  6.2266e-04  2.8237e-04  0:06:19 1603
  2817  3.1349e-03  9.1171e-04  3.5532e-04  3.0552e-03  6.2210e-04  2.8220e-04  0:05:03 1602
  2818  3.1374e-03  9.0195e-04  3.5731e-04  3.0573e-03  6.2145e-04  2.8194e-04  0:04:02 1601
  2819  3.1423e-03  9.3267e-04  3.6052e-04  3.0619e-03  6.2064e-04  2.8164e-04  0:03:13 1600
  2820  3.1392e-03  8.8747e-04  3.5980e-04  3.0593e-03  6.1986e-04  2.8127e-04  0:07:54 1599
  2821  3.1357e-03  8.4209e-04  3.5679e-04  3.0566e-03  6.1904e-04  2.8083e-04  0:06:19 1598
  2822  3.1349e-03  8.2325e-04  3.5497e-04  3.0563e-03  6.1821e-04  2.8034e-04  0:05:03 1597
  2823  3.1356e-03  8.2385e-04  3.5376e-04  3.0573e-03  6.1734e-04  2.8000e-04  0:04:02 1596
  2824  3.1365e-03  8.2583e-04  3.5275e-04  3.0582e-03  6.1655e-04  2.7972e-04  0:03:14 1595
  2825  3.1384e-03  8.3621e-04  3.5130e-04  3.0601e-03  6.1578e-04  2.7958e-04  0:02:35 1594

  iter  continuity  x-velocity  y-velocity      energy           k       omega     time/iter
  2826  3.1407e-03  8.4428e-04  3.5207e-04  3.0622e-03  6.1507e-04  2.7988e-04  0:07:23 1593
  2827  3.1420e-03  8.4692e-04  3.5372e-04  3.0633e-03  6.1435e-04  2.8020e-04  0:05:54 1592
  2828  3.1423e-03  8.4669e-04  3.5645e-04  3.0639e-03  6.1360e-04  2.8062e-04  0:04:43 1591
  2829  3.1448e-03  8.6558e-04  3.5721e-04  3.0667e-03  6.1285e-04  2.8104e-04  0:03:46 1590
  2830  3.1468e-03  8.6436e-04  3.5898e-04  3.0688e-03  6.1216e-04  2.8142e-04  0:03:01 1589
  2831  3.1486e-03  8.6328e-04  3.5901e-04  3.0708e-03  6.1154e-04  2.8172e-04  0:07:42 1588
  2832  3.1514e-03  8.7140e-04  3.5667e-04  3.0736e-03  6.1083e-04  2.8196e-04  0:06:09 1587
  2833  3.1539e-03  8.8683e-04  3.5454e-04  3.0760e-03  6.1011e-04  2.8221e-04  0:04:55 1586
  2834  3.1563e-03  9.0622e-04  3.5216e-04  3.0785e-03  6.0938e-04  2.8251e-04  0:03:56 1585
  2835  3.1558e-03  8.9952e-04  3.5258e-04  3.0786e-03  6.0874e-04  2.8286e-04  0:03:09 1584
  2836  3.1549e-03  8.8055e-04  3.5472e-04  3.0778e-03  6.0814e-04  2.8312e-04  0:07:48 1583

  iter  continuity  x-velocity  y-velocity      energy           k       omega     time/iter
  2837  3.1541e-03  8.9350e-04  3.5576e-04  3.0775e-03  6.0767e-04  2.8328e-04  0:06:14 1582
  2838  3.1526e-03  8.9198e-04  3.5381e-04  3.0759e-03  6.0717e-04  2.8345e-04  0:04:59 1581
  2839  3.1508e-03  9.2213e-04  3.5093e-04  3.0744e-03  6.0669e-04  2.8338e-04  0:03:59 1580
  2840  3.1468e-03  9.4322e-04  3.5163e-04  3.0709e-03  6.0619e-04  2.8336e-04  0:08:27 1579
  2841  3.1406e-03  9.5195e-04  3.5482e-04  3.0652e-03  6.0552e-04  2.8330e-04  0:06:45 1578
  2842  3.1318e-03  9.3963e-04  3.5880e-04  3.0568e-03  6.0486e-04  2.8318e-04  0:05:24 1577
  2843  3.1219e-03  9.2759e-04  3.5477e-04  3.0472e-03  6.0437e-04  2.8296e-04  0:04:19 1576
  2844  3.1119e-03  9.2809e-04  3.4950e-04  3.0375e-03  6.0414e-04  2.8265e-04  0:03:27 1575
  2845  3.1006e-03  9.3444e-04  3.4665e-04  3.0260e-03  6.0399e-04  2.8226e-04  0:08:00 1574
  2846  3.0864e-03  9.1522e-04  3.4310e-04  3.0117e-03  6.0391e-04  2.8169e-04  0:06:24 1573
  2847  3.0731e-03  9.1171e-04  3.4243e-04  2.9981e-03  6.0381e-04  2.8087e-04  0:05:07 1572

  iter  continuity  x-velocity  y-velocity      energy           k       omega     time/iter
  2848  3.0604e-03  9.3187e-04  3.4440e-04  2.9848e-03  6.0383e-04  2.8022e-04  0:04:05 1571
  2849  3.0406e-03  9.3464e-04  3.4281e-04  2.9650e-03  6.0402e-04  2.7943e-04  0:08:30 1570
  2850  3.0121e-03  8.7600e-04  3.3899e-04  2.9374e-03  6.0432e-04  2.7849e-04  0:06:48 1569
  2851  2.9868e-03  8.5128e-04  3.3424e-04  2.9126e-03  6.0473e-04  2.7754e-04  0:05:26 1568
  2852  2.9612e-03  8.4068e-04  3.3169e-04  2.8872e-03  6.0517e-04  2.7658e-04  0:04:21 1567
  2853  2.9345e-03  8.3450e-04  3.2733e-04  2.8603e-03  6.0562e-04  2.7551e-04  0:03:28 1566
  2854  2.9078e-03  8.4142e-04  3.2347e-04  2.8333e-03  6.0613e-04  2.7446e-04  0:08:00 1565
  2855  2.8804e-03  8.4401e-04  3.2388e-04  2.8056e-03  6.0645e-04  2.7346e-04  0:06:23 1564
  2856  2.8513e-03  8.4572e-04  3.2410e-04  2.7762e-03  6.0662e-04  2.7246e-04  0:05:07 1563
  2857  2.8214e-03  8.4626e-04  3.2338e-04  2.7466e-03  6.0662e-04  2.7142e-04  0:09:18 1562
  2858  2.7926e-03  8.5853e-04  3.2113e-04  2.7177e-03  6.0646e-04  2.7038e-04  0:07:26 1561

  iter  continuity  x-velocity  y-velocity      energy           k       omega     time/iter
  2859  2.7622e-03  8.5870e-04  3.1939e-04  2.6871e-03  6.0620e-04  2.6931e-04  0:05:56 1560
  2860  2.7297e-03  8.4828e-04  3.1177e-04  2.6544e-03  6.0575e-04  2.6833e-04  0:04:45 1559
  2861  2.6982e-03  8.3847e-04  3.0453e-04  2.6225e-03  6.0506e-04  2.6735e-04  0:03:48 1558
  2862  2.6695e-03  8.4742e-04  3.0186e-04  2.5935e-03  6.0419e-04  2.6623e-04  0:08:14 1557
  2863  2.6386e-03  8.4819e-04  3.0204e-04  2.5626e-03  6.0313e-04  2.6501e-04  0:06:35 1556
  2864  2.6110e-03  8.5985e-04  3.0450e-04  2.5353e-03  6.0185e-04  2.6386e-04  0:05:15 1555
  2865  2.5835e-03  8.5801e-04  3.0626e-04  2.5073e-03  6.0032e-04  2.6261e-04  0:04:12 1554
  2866  2.5563e-03  8.6930e-04  3.0504e-04  2.4798e-03  5.9858e-04  2.6128e-04  0:03:22 1553
  2867  2.5306e-03  8.8788e-04  3.0491e-04  2.4540e-03  5.9653e-04  2.6000e-04  0:07:52 1552
  2868  2.5070e-03  9.1475e-04  3.0522e-04  2.4306e-03  5.9424e-04  2.5880e-04  0:06:17 1551
  2869  2.4799e-03  9.0682e-04  3.0406e-04  2.4037e-03  5.9177e-04  2.5761e-04  0:05:01 1550

  iter  continuity  x-velocity  y-velocity      energy           k       omega     time/iter
  2870  2.4531e-03  8.7500e-04  3.0327e-04  2.3768e-03  5.8912e-04  2.5633e-04  0:04:01 1549
  2871  2.4285e-03  8.6054e-04  3.0242e-04  2.3523e-03  5.8637e-04  2.5496e-04  0:03:13 1548
  2872  2.4084e-03  8.7560e-04  3.0042e-04  2.3323e-03  5.8356e-04  2.5357e-04  0:07:43 1547
  2873  2.3909e-03  9.1194e-04  2.9893e-04  2.3146e-03  5.8067e-04  2.5225e-04  0:06:11 1546
  2874  2.3685e-03  9.1545e-04  3.0085e-04  2.2922e-03  5.7767e-04  2.5115e-04  0:04:56 1545
  2875  2.3498e-03  8.9725e-04  3.0496e-04  2.2738e-03  5.7452e-04  2.4992e-04  0:03:57 1544
  2876  2.3356e-03  9.0958e-04  3.1284e-04  2.2592e-03  5.7122e-04  2.4835e-04  0:03:09 1543
  2877  2.3194e-03  8.9801e-04  3.0961e-04  2.2424e-03  5.6789e-04  2.4651e-04  0:02:31 1542
  2878  2.3087e-03  9.3313e-04  3.0974e-04  2.2313e-03  5.6454e-04  2.4507e-04  0:02:01 1541
  2879  2.2818e-03  8.6505e-04  3.0440e-04  2.2058e-03  5.6110e-04  2.4369e-04  0:06:45 1540
  2880  2.2664e-03  8.5314e-04  2.9524e-04  2.1912e-03  5.5753e-04  2.4206e-04  0:05:24 1539

  iter  continuity  x-velocity  y-velocity      energy           k       omega     time/iter
  2881  2.2533e-03  8.4238e-04  2.9300e-04  2.1785e-03  5.5391e-04  2.4047e-04  0:04:19 1538
  2882  2.2408e-03  8.3960e-04  2.9148e-04  2.1664e-03  5.5046e-04  2.3889e-04  0:03:27 1537
  2883  2.2285e-03  8.2569e-04  2.8911e-04  2.1544e-03  5.4714e-04  2.3752e-04  0:02:45 1536
  2884  2.2180e-03  8.1649e-04  2.9044e-04  2.1438e-03  5.4402e-04  2.3628e-04  0:07:19 1535
  2885  2.2096e-03  8.1970e-04  2.8845e-04  2.1354e-03  5.4103e-04  2.3511e-04  0:05:51 1534
  2886  2.2013e-03  8.0907e-04  2.8062e-04  2.1272e-03  5.3812e-04  2.3405e-04  0:04:41 1533
  2887  2.1959e-03  8.1885e-04  2.8142e-04  2.1218e-03  5.3537e-04  2.3315e-04  0:03:44 1532
  2888  2.1895e-03  8.3911e-04  2.8472e-04  2.1159e-03  5.3267e-04  2.3221e-04  0:02:59 1531
  2889  2.1870e-03  8.5288e-04  2.8868e-04  2.1136e-03  5.3003e-04  2.3137e-04  0:02:23 1530
  2890  2.1834e-03  8.5866e-04  2.9355e-04  2.1099e-03  5.2743e-04  2.3056e-04  0:07:00 1529
  2891  2.1803e-03  8.6804e-04  2.9064e-04  2.1069e-03  5.2490e-04  2.2969e-04  0:05:36 1528

  iter  continuity  x-velocity  y-velocity      energy           k       omega     time/iter
  2892  2.1784e-03  8.8204e-04  2.8911e-04  2.1050e-03  5.2250e-04  2.2887e-04  0:04:29 1527
  2893  2.1724e-03  8.8027e-04  2.8785e-04  2.0993e-03  5.2023e-04  2.2808e-04  0:03:35 1526
  2894  2.1671e-03  8.6469e-04  2.9033e-04  2.0945e-03  5.1815e-04  2.2730e-04  0:02:52 1525
  2895  2.1614e-03  8.5267e-04  2.9586e-04  2.0890e-03  5.1626e-04  2.2632e-04  0:02:17 1524
  2896  2.1561e-03  8.5713e-04  2.9599e-04  2.0836e-03  5.1463e-04  2.2535e-04  0:06:54 1523
  2897  2.1528e-03  8.9006e-04  2.9610e-04  2.0808e-03  5.1322e-04  2.2455e-04  0:05:31 1522
  2898  2.1478e-03  8.8890e-04  2.9692e-04  2.0765e-03  5.1196e-04  2.2379e-04  0:04:25 1521
  2899  2.1467e-03  8.9877e-04  3.0085e-04  2.0751e-03  5.1079e-04  2.2318e-04  0:03:32 1520
  2900  2.1461e-03  9.2566e-04  2.9911e-04  2.0741e-03  5.0980e-04  2.2239e-04  0:02:49 1519
  2901  2.1422e-03  9.1033e-04  2.9879e-04  2.0699e-03  5.0896e-04  2.2141e-04  0:07:19 1518
  2902  2.1483e-03  9.6213e-04  3.0110e-04  2.0747e-03  5.0823e-04  2.1972e-04  0:05:51 1517

  iter  continuity  x-velocity  y-velocity      energy           k       omega     time/iter
  2903  2.1387e-03  9.4211e-04  3.0227e-04  2.0653e-03  5.0756e-04  2.1840e-04  0:04:41 1516
  2904  2.1256e-03  8.8004e-04  3.0038e-04  2.0536e-03  5.0685e-04  2.1777e-04  0:03:44 1515
  2905  2.1171e-03  8.6826e-04  2.9988e-04  2.0466e-03  5.0624e-04  2.1699e-04  0:02:59 1514
  2906  2.1090e-03  8.5628e-04  2.9842e-04  2.0394e-03  5.0580e-04  2.1646e-04  0:07:26 1513
  2907  2.1021e-03  8.4370e-04  2.9395e-04  2.0325e-03  5.0541e-04  2.1604e-04  0:05:57 1512
  2908  2.0947e-03  8.2918e-04  2.8856e-04  2.0249e-03  5.0511e-04  2.1577e-04  0:04:45 1511
  2909  2.0907e-03  8.3076e-04  2.8617e-04  2.0204e-03  5.0482e-04  2.1551e-04  0:03:48 1510
  2910  2.0855e-03  8.3840e-04  2.8772e-04  2.0149e-03  5.0456e-04  2.1533e-04  0:03:02 1509
  2911  2.0806e-03  8.4155e-04  2.8954e-04  2.0105e-03  5.0433e-04  2.1518e-04  0:02:26 1508
  2912  2.0771e-03  8.6013e-04  2.9184e-04  2.0069e-03  5.0414e-04  2.1500e-04  0:06:58 1507
  2913  2.0734e-03  8.8050e-04  2.8964e-04  2.0035e-03  5.0427e-04  2.1499e-04  0:05:34 1506

  iter  continuity  x-velocity  y-velocity      energy           k       omega     time/iter
  2914  2.0729e-03  8.9689e-04  2.8694e-04  2.0026e-03  5.0452e-04  2.1504e-04  0:04:27 1505
  2915  2.0720e-03  9.1449e-04  2.8784e-04  2.0016e-03  5.0482e-04  2.1510e-04  0:03:34 1504
  2916  2.0688e-03  9.1340e-04  2.9098e-04  1.9986e-03  5.0516e-04  2.1517e-04  0:07:51 1503
  2917  2.0627e-03  9.0565e-04  2.9301e-04  1.9926e-03  5.0556e-04  2.1524e-04  0:06:17 1502
  2918  2.0582e-03  9.0353e-04  2.9012e-04  1.9884e-03  5.0603e-04  2.1522e-04  0:05:01 1501
  2919  2.0566e-03  9.2453e-04  2.9010e-04  1.9877e-03  5.0660e-04  2.1499e-04  0:04:01 1500
  2920  2.0544e-03  9.2288e-04  2.9397e-04  1.9863e-03  5.0728e-04  2.1474e-04  0:03:13 1499
  2921  2.0538e-03  9.1494e-04  2.9691e-04  1.9852e-03  5.0806e-04  2.1480e-04  0:02:34 1498
  2922  2.0575e-03  9.4151e-04  2.9800e-04  1.9890e-03  5.0891e-04  2.1493e-04  0:07:02 1497
  2923  2.0609e-03  9.5480e-04  2.9984e-04  1.9919e-03  5.0985e-04  2.1503e-04  0:05:38 1496
  2924  2.0653e-03  9.4939e-04  2.9968e-04  1.9958e-03  5.1089e-04  2.1490e-04  0:04:30 1495

  iter  continuity  x-velocity  y-velocity      energy           k       omega     time/iter
  2925  2.0780e-03  9.7529e-04  3.0256e-04  2.0072e-03  5.1186e-04  2.1465e-04  0:03:36 1494
  2926  2.0835e-03  9.8121e-04  3.0331e-04  2.0127e-03  5.1282e-04  2.1398e-04  0:02:53 1493
  2927  2.0791e-03  9.3145e-04  3.0105e-04  2.0103e-03  5.1374e-04  2.1323e-04  0:07:16 1492
  2928  2.0809e-03  9.2704e-04  2.9269e-04  2.0139e-03  5.1463e-04  2.1294e-04  0:05:49 1491
  2929  2.0803e-03  8.8694e-04  2.8320e-04  2.0144e-03  5.1555e-04  2.1299e-04  0:04:39 1490
  2930  2.0838e-03  8.5178e-04  2.7564e-04  2.0186e-03  5.1653e-04  2.1282e-04  0:03:43 1489
  2931  2.0922e-03  8.3657e-04  2.7514e-04  2.0270e-03  5.1759e-04  2.1298e-04  0:02:58 1488
  2932  2.1013e-03  8.3858e-04  2.7777e-04  2.0364e-03  5.1876e-04  2.1330e-04  0:02:23 1487
  2933  2.1121e-03  8.3593e-04  2.7893e-04  2.0484e-03  5.2001e-04  2.1360e-04  0:06:51 1486
  2934  2.1246e-03  8.3800e-04  2.7865e-04  2.0615e-03  5.2134e-04  2.1380e-04  0:05:29 1485
  2935  2.1393e-03  8.5573e-04  2.7778e-04  2.0769e-03  5.2267e-04  2.1414e-04  0:04:23 1484

  iter  continuity  x-velocity  y-velocity      energy           k       omega     time/iter
  2936  2.1570e-03  8.6809e-04  2.7428e-04  2.0944e-03  5.2404e-04  2.1439e-04  0:03:30 1483
  2937  2.1757e-03  8.9993e-04  2.7477e-04  2.1132e-03  5.2549e-04  2.1460e-04  0:02:48 1482
  2938  2.1914e-03  9.0644e-04  2.7450e-04  2.1299e-03  5.2698e-04  2.1474e-04  0:07:10 1481
  2939  2.2070e-03  8.9677e-04  2.7652e-04  2.1457e-03  5.2843e-04  2.1479e-04  0:05:44 1480
  2940  2.2237e-03  8.9506e-04  2.7416e-04  2.1631e-03  5.2986e-04  2.1467e-04  0:04:35 1479
  2941  2.2421e-03  9.1491e-04  2.7465e-04  2.1819e-03  5.3129e-04  2.1438e-04  0:03:40 1478
  2942  2.2547e-03  9.1589e-04  2.7500e-04  2.1952e-03  5.3271e-04  2.1430e-04  0:02:56 1477
  2943  2.2677e-03  8.9267e-04  2.7445e-04  2.2086e-03  5.3418e-04  2.1415e-04  0:07:16 1476
  2944  2.2839e-03  8.9395e-04  2.7672e-04  2.2253e-03  5.3569e-04  2.1388e-04  0:05:48 1475
  2945  2.3028e-03  9.2817e-04  2.7876e-04  2.2445e-03  5.3713e-04  2.1334e-04  0:04:39 1474
  2946  2.3153e-03  9.3126e-04  2.7718e-04  2.2573e-03  5.3860e-04  2.1295e-04  0:03:43 1473

  iter  continuity  x-velocity  y-velocity      energy           k       omega     time/iter
  2947  2.3315e-03  9.1652e-04  2.8178e-04  2.2737e-03  5.4008e-04  2.1253e-04  0:02:58 1472
  2948  2.3534e-03  9.5209e-04  2.8424e-04  2.2951e-03  5.4158e-04  2.1207e-04  0:07:17 1471
  2949  2.3703e-03  9.5780e-04  2.8316e-04  2.3114e-03  5.4298e-04  2.1149e-04  0:05:49 1470
  2950  2.3755e-03  9.3024e-04  2.7604e-04  2.3175e-03  5.4428e-04  2.1086e-04  0:04:39 1469
  2951  2.3780e-03  8.5573e-04  2.6874e-04  2.3215e-03  5.4550e-04  2.1035e-04  0:03:43 1468
  2952  2.3849e-03  8.3215e-04  2.6395e-04  2.3297e-03  5.4667e-04  2.0974e-04  0:02:58 1467
  2953  2.3931e-03  8.1258e-04  2.6111e-04  2.3385e-03  5.4776e-04  2.0919e-04  0:07:16 1466
  2954  2.4034e-03  8.0302e-04  2.6373e-04  2.3489e-03  5.4880e-04  2.0876e-04  0:05:48 1465
  2955  2.4120e-03  7.9619e-04  2.6334e-04  2.3580e-03  5.4976e-04  2.0837e-04  0:04:38 1464
  2956  2.4201e-03  7.8956e-04  2.6146e-04  2.3668e-03  5.5071e-04  2.0811e-04  0:03:43 1463
  2957  2.4273e-03  7.8177e-04  2.5815e-04  2.3744e-03  5.5162e-04  2.0796e-04  0:02:58 1462

  iter  continuity  x-velocity  y-velocity      energy           k       omega     time/iter
  2958  2.4346e-03  7.7806e-04  2.5561e-04  2.3822e-03  5.5250e-04  2.0766e-04  0:07:14 1461
  2959  2.4438e-03  7.8222e-04  2.5268e-04  2.3914e-03  5.5335e-04  2.0714e-04  0:05:47 1460
  2960  2.4546e-03  8.0069e-04  2.5429e-04  2.4023e-03  5.5413e-04  2.0635e-04  0:04:38 1459
  2961  2.4620e-03  8.1169e-04  2.5790e-04  2.4103e-03  5.5482e-04  2.0556e-04  0:03:42 1458
  2962  2.4706e-03  8.1219e-04  2.5807e-04  2.4195e-03  5.5542e-04  2.0478e-04  0:02:57 1457
  2963  2.4776e-03  8.1191e-04  2.5730e-04  2.4269e-03  5.5592e-04  2.0454e-04  0:07:13 1456
  2964  2.4833e-03  8.1544e-04  2.5591e-04  2.4329e-03  5.5639e-04  2.0423e-04  0:05:46 1455
  2965  2.4901e-03  8.2593e-04  2.5431e-04  2.4402e-03  5.5678e-04  2.0384e-04  0:04:37 1454
  2966  2.4958e-03  8.3951e-04  2.5351e-04  2.4465e-03  5.5711e-04  2.0347e-04  0:08:32 1453
  2967  2.5002e-03  8.3752e-04  2.5561e-04  2.4512e-03  5.5740e-04  2.0306e-04  0:06:49 1452
  2968  2.5038e-03  8.3352e-04  2.5982e-04  2.4549e-03  5.5766e-04  2.0254e-04  0:05:27 1451

  iter  continuity  x-velocity  y-velocity      energy           k       omega     time/iter
  2969  2.5078e-03  8.4514e-04  2.6284e-04  2.4592e-03  5.5785e-04  2.0202e-04  0:04:22 1450
  2970  2.5125e-03  8.7289e-04  2.6256e-04  2.4644e-03  5.5796e-04  2.0144e-04  0:08:19 1449
  2971  2.5133e-03  8.7991e-04  2.6383e-04  2.4653e-03  5.5799e-04  2.0072e-04  0:06:39 1448
  2972  2.5149e-03  8.7503e-04  2.6532e-04  2.4671e-03  5.5800e-04  2.0015e-04  0:05:19 1447
  2973  2.5215e-03  9.0587e-04  2.7007e-04  2.4730e-03  5.5798e-04  1.9960e-04  0:09:04 1446
  2974  2.5232e-03  9.3206e-04  2.6704e-04  2.4742e-03  5.5783e-04  1.9905e-04  0:07:15 1445
  2975  2.5223e-03  9.3694e-04  2.6469e-04  2.4735e-03  5.5756e-04  1.9849e-04  0:05:48 1444
  2976  2.5039e-03  8.4786e-04  2.5877e-04  2.4568e-03  5.5717e-04  1.9785e-04  0:04:38 1443
  2977  2.4918e-03  7.8354e-04  2.4791e-04  2.4462e-03  5.5678e-04  1.9708e-04  0:08:31 1442
  2978  2.4830e-03  7.6362e-04  2.4489e-04  2.4384e-03  5.5642e-04  1.9660e-04  0:06:48 1441
  2979  2.4745e-03  7.4268e-04  2.4523e-04  2.4305e-03  5.5604e-04  1.9618e-04  0:05:26 1440

  iter  continuity  x-velocity  y-velocity      energy           k       omega     time/iter
  2980  2.4650e-03  7.2378e-04  2.4418e-04  2.4215e-03  5.5571e-04  1.9582e-04  0:04:21 1439
  2981  2.4544e-03  6.9868e-04  2.4416e-04  2.4115e-03  5.5536e-04  1.9544e-04  0:03:29 1438
  2982  2.4457e-03  6.9773e-04  2.4065e-04  2.4031e-03  5.5493e-04  1.9505e-04  0:07:34 1437
  2983  2.4372e-03  6.9606e-04  2.3766e-04  2.3946e-03  5.5449e-04  1.9463e-04  0:06:03 1436
  2984  2.4281e-03  6.8992e-04  2.3475e-04  2.3855e-03  5.5401e-04  1.9399e-04  0:04:50 1435
  2985  2.4193e-03  6.9479e-04  2.3467e-04  2.3766e-03  5.5352e-04  1.9369e-04  0:03:52 1434
  2986  2.4114e-03  7.0352e-04  2.3718e-04  2.3685e-03  5.5297e-04  1.9347e-04  0:03:06 1433
  2987  2.4013e-03  7.0603e-04  2.3601e-04  2.3586e-03  5.5238e-04  1.9315e-04  0:07:15 1432
  2988  2.3907e-03  7.0825e-04  2.3511e-04  2.3486e-03  5.5172e-04  1.9283e-04  0:05:48 1431
  2989  2.3810e-03  7.1291e-04  2.3616e-04  2.3391e-03  5.5103e-04  1.9248e-04  0:04:38 1430
  2990  2.3692e-03  7.0158e-04  2.3600e-04  2.3273e-03  5.5034e-04  1.9203e-04  0:03:42 1429

  iter  continuity  x-velocity  y-velocity      energy           k       omega     time/iter
  2991  2.3581e-03  7.0438e-04  2.3239e-04  2.3162e-03  5.4964e-04  1.9152e-04  0:02:58 1428
  2992  2.3484e-03  7.2980e-04  2.3087e-04  2.3065e-03  5.4893e-04  1.9097e-04  0:02:22 1427
  2993  2.3349e-03  7.3409e-04  2.3113e-04  2.2932e-03  5.4827e-04  1.9048e-04  0:06:39 1426
  2994  2.3212e-03  7.2771e-04  2.3267e-04  2.2799e-03  5.4761e-04  1.9011e-04  0:05:19 1425
  2995  2.3055e-03  7.0933e-04  2.3535e-04  2.2644e-03  5.4697e-04  1.8953e-04  0:04:15 1424
  2996  2.2891e-03  6.9386e-04  2.3594e-04  2.2482e-03  5.4630e-04  1.8884e-04  0:03:24 1423
  2997  2.2744e-03  7.0478e-04  2.3658e-04  2.2338e-03  5.4558e-04  1.8799e-04  0:02:43 1422
  2998  2.2591e-03  7.2575e-04  2.4104e-04  2.2187e-03  5.4482e-04  1.8674e-04  0:06:54 1421
  2999  2.2409e-03  7.2257e-04  2.4472e-04  2.2006e-03  5.4396e-04  1.8569e-04  0:05:31 1420
  3000  2.2237e-03  7.2014e-04  2.4797e-04  2.1834e-03  5.4299e-04  1.8488e-04  0:04:25 1419
  3001  2.2098e-03  7.3369e-04  2.4707e-04  2.1690e-03  5.4193e-04  1.8417e-04  0:03:32 1418

  iter  continuity  x-velocity  y-velocity      energy           k       omega     time/iter
  3002  2.1911e-03  7.4199e-04  2.4765e-04  2.1498e-03  5.4084e-04  1.8343e-04  0:07:33 1417
  3003  2.1773e-03  7.6923e-04  2.4608e-04  2.1357e-03  5.3970e-04  1.8271e-04  0:06:02 1416
  3004  2.1501e-03  7.6140e-04  2.4101e-04  2.1092e-03  5.3851e-04  1.8199e-04  0:04:49 1415
  3005  2.1229e-03  7.0248e-04  2.3636e-04  2.0833e-03  5.3728e-04  1.8123e-04  0:03:51 1414
  3006  2.0997e-03  6.8794e-04  2.3331e-04  2.0609e-03  5.3607e-04  1.8048e-04  0:03:05 1413
  3007  2.0776e-03  6.8278e-04  2.2951e-04  2.0394e-03  5.3490e-04  1.7964e-04  0:07:10 1412
  3008  2.0529e-03  6.7481e-04  2.2791e-04  2.0149e-03  5.3381e-04  1.7871e-04  0:05:44 1411
  3009  2.0291e-03  6.7195e-04  2.2473e-04  1.9915e-03  5.3278e-04  1.7772e-04  0:04:35 1410
  3010  2.0058e-03  6.6157e-04  2.2194e-04  1.9683e-03  5.3180e-04  1.7660e-04  0:03:40 1409
  3011  1.9831e-03  6.5936e-04  2.2277e-04  1.9456e-03  5.3085e-04  1.7573e-04  0:07:37 1408
  3012  1.9608e-03  6.5996e-04  2.2161e-04  1.9232e-03  5.2986e-04  1.7481e-04  0:06:06 1407

  iter  continuity  x-velocity  y-velocity      energy           k       omega     time/iter
  3013  1.9394e-03  6.7196e-04  2.1987e-04  1.9016e-03  5.2881e-04  1.7395e-04  0:04:52 1406
  3014  1.9166e-03  6.6386e-04  2.1865e-04  1.8785e-03  5.2773e-04  1.7309e-04  0:03:54 1405
  3015  1.8942e-03  6.5459e-04  2.1714e-04  1.8559e-03  5.2660e-04  1.7224e-04  0:03:07 1404
  3016  1.8714e-03  6.5520e-04  2.1772e-04  1.8332e-03  5.2541e-04  1.7130e-04  0:02:29 1403
  3017  1.8527e-03  6.8131e-04  2.1873e-04  1.8142e-03  5.2416e-04  1.7042e-04  0:06:40 1402
  3018  1.8332e-03  6.9660e-04  2.1925e-04  1.7945e-03  5.2283e-04  1.6966e-04  0:05:20 1401
  3019  1.8089e-03  6.8230e-04  2.1711e-04  1.7705e-03  5.2148e-04  1.6883e-04  0:04:15 1400
  3020  1.7825e-03  6.4186e-04  2.1194e-04  1.7442e-03  5.2012e-04  1.6799e-04  0:03:24 1399
  3021  1.7600e-03  6.2006e-04  2.0967e-04  1.7217e-03  5.1875e-04  1.6714e-04  0:02:43 1398
  3022  1.7375e-03  6.1899e-04  2.0839e-04  1.6994e-03  5.1738e-04  1.6623e-04  0:02:11 1397
  3023  1.7148e-03  6.1079e-04  2.0903e-04  1.6773e-03  5.1600e-04  1.6539e-04  0:06:24 1396

  iter  continuity  x-velocity  y-velocity      energy           k       omega     time/iter
  3024  1.6946e-03  6.0717e-04  2.0968e-04  1.6571e-03  5.1460e-04  1.6460e-04  0:05:07 1395
  3025  1.6759e-03  6.1726e-04  2.1006e-04  1.6386e-03  5.1320e-04  1.6383e-04  0:04:05 1394
  3026  1.6562e-03  6.1449e-04  2.1159e-04  1.6189e-03  5.1179e-04  1.6285e-04  0:03:16 1393
  3027  1.6392e-03  6.2895e-04  2.1188e-04  1.6019e-03  5.1037e-04  1.6192e-04  0:02:37 1392
  3028  1.6222e-03  6.4259e-04  2.1096e-04  1.5850e-03  5.0896e-04  1.6106e-04  0:02:05 1391
  3029  1.6057e-03  6.4179e-04  2.1018e-04  1.5685e-03  5.0757e-04  1.6038e-04  0:06:18 1390
  3030  1.5913e-03  6.3216e-04  2.1317e-04  1.5536e-03  5.0620e-04  1.5984e-04  0:05:02 1389
  3031  1.5771e-03  6.1980e-04  2.1728e-04  1.5392e-03  5.0480e-04  1.5931e-04  0:04:02 1388
  3032  1.5693e-03  6.2254e-04  2.2053e-04  1.5308e-03  5.0336e-04  1.5874e-04  0:03:13 1387
  3033  1.5618e-03  6.3959e-04  2.1939e-04  1.5226e-03  5.0191e-04  1.5813e-04  0:02:34 1386
  3034  1.5618e-03  6.8757e-04  2.2208e-04  1.5217e-03  5.0046e-04  1.5753e-04  0:02:03 1385

  iter  continuity  x-velocity  y-velocity      energy           k       omega     time/iter
  3035  1.5543e-03  7.0854e-04  2.2225e-04  1.5144e-03  4.9904e-04  1.5660e-04  0:06:15 1384
  3036  1.5375e-03  6.4082e-04  2.2130e-04  1.4990e-03  4.9760e-04  1.5569e-04  0:05:00 1383
  3037  1.5301e-03  6.1649e-04  2.1658e-04  1.4924e-03  4.9618e-04  1.5495e-04  0:04:00 1382
  3038  1.5247e-03  5.9931e-04  2.1278e-04  1.4876e-03  4.9467e-04  1.5435e-04  0:03:12 1381
  3039  1.5213e-03  5.9282e-04  2.1085e-04  1.4843e-03  4.9314e-04  1.5374e-04  0:02:33 1380
  3040  1.5200e-03  5.9318e-04  2.0888e-04  1.4830e-03  4.9157e-04  1.5305e-04  0:06:38 1379
  3041  1.5191e-03  5.9081e-04  2.0875e-04  1.4821e-03  4.9002e-04  1.5233e-04  0:05:18 1378
  3042  1.5190e-03  5.9051e-04  2.0739e-04  1.4819e-03  4.8845e-04  1.5166e-04  0:04:15 1377
  3043  1.5194e-03  5.8699e-04  2.0664e-04  1.4821e-03  4.8687e-04  1.5090e-04  0:03:24 1376
  3044  1.5206e-03  5.8688e-04  2.0776e-04  1.4832e-03  4.8527e-04  1.5005e-04  0:07:18 1375
  3045  1.5220e-03  5.7648e-04  2.1042e-04  1.4843e-03  4.8364e-04  1.4929e-04  0:05:50 1374

  iter  continuity  x-velocity  y-velocity      energy           k       omega     time/iter
  3046  1.5243e-03  5.7872e-04  2.0951e-04  1.4865e-03  4.8197e-04  1.4857e-04  0:04:40 1373
  3047  1.5241e-03  5.6716e-04  2.0966e-04  1.4867e-03  4.8029e-04  1.4800e-04  0:03:44 1372
  3048  1.5256e-03  5.5794e-04  2.0880e-04  1.4884e-03  4.7860e-04  1.4757e-04  0:02:59 1371
  3049  1.5284e-03  5.5934e-04  2.0686e-04  1.4912e-03  4.7698e-04  1.4717e-04  0:02:23 1370
  3050  1.5305e-03  5.5255e-04  2.0670e-04  1.4935e-03  4.7540e-04  1.4681e-04  0:06:28 1369
  3051  1.5350e-03  5.5112e-04  2.0374e-04  1.4982e-03  4.7393e-04  1.4646e-04  0:05:10 1368
  3052  1.5417e-03  5.5121e-04  2.0302e-04  1.5049e-03  4.7249e-04  1.4605e-04  0:04:08 1367
  3053  1.5508e-03  5.6095e-04  2.0372e-04  1.5138e-03  4.7105e-04  1.4587e-04  0:03:18 1366
  3054  1.5599e-03  5.7309e-04  2.0396e-04  1.5230e-03  4.6968e-04  1.4562e-04  0:02:38 1365
  3055  1.5678e-03  5.6204e-04  2.0383e-04  1.5313e-03  4.6837e-04  1.4526e-04  0:06:39 1364
  3056  1.5778e-03  5.6386e-04  2.0517e-04  1.5415e-03  4.6716e-04  1.4494e-04  0:05:19 1363

  iter  continuity  x-velocity  y-velocity      energy           k       omega     time/iter
  3057  1.5868e-03  5.6672e-04  2.0720e-04  1.5508e-03  4.6602e-04  1.4470e-04  0:04:15 1362
  3058  1.5972e-03  5.6465e-04  2.0525e-04  1.5616e-03  4.6508e-04  1.4449e-04  0:03:24 1361
  3059  1.6105e-03  5.7568e-04  2.0302e-04  1.5752e-03  4.6462e-04  1.4426e-04  0:02:43 1360
  3060  1.6269e-03  6.0236e-04  2.0365e-04  1.5916e-03  4.6448e-04  1.4405e-04  0:06:42 1359
  3061  1.6386e-03  6.0255e-04  2.0529e-04  1.6038e-03  4.6449e-04  1.4399e-04  0:05:22 1358
  3062  1.6524e-03  6.0431e-04  2.0595e-04  1.6179e-03  4.6467e-04  1.4393e-04  0:04:17 1357
  3063  1.6688e-03  6.1208e-04  2.0846e-04  1.6344e-03  4.6501e-04  1.4388e-04  0:03:25 1356
  3064  1.6856e-03  6.2040e-04  2.0954e-04  1.6512e-03  4.6549e-04  1.4389e-04  0:02:44 1355
  3065  1.7033e-03  6.3138e-04  2.1070e-04  1.6690e-03  4.6610e-04  1.4391e-04  0:06:42 1354
  3066  1.7219e-03  6.2863e-04  2.1301e-04  1.6874e-03  4.6678e-04  1.4390e-04  0:05:21 1353
  3067  1.7411e-03  6.3126e-04  2.1514e-04  1.7064e-03  4.6752e-04  1.4381e-04  0:04:17 1352

  iter  continuity  x-velocity  y-velocity      energy           k       omega     time/iter
  3068  1.7649e-03  6.6074e-04  2.1883e-04  1.7298e-03  4.6829e-04  1.4361e-04  0:03:25 1351
  3069  1.7874e-03  7.0281e-04  2.2316e-04  1.7520e-03  4.6904e-04  1.4353e-04  0:02:44 1350
  3070  1.7983e-03  6.7723e-04  2.2115e-04  1.7638e-03  4.6978e-04  1.4369e-04  0:02:11 1349
  3071  1.8041e-03  5.8566e-04  2.1749e-04  1.7711e-03  4.7055e-04  1.4385e-04  0:06:15 1348
  3072  1.8181e-03  5.4802e-04  2.1500e-04  1.7860e-03  4.7134e-04  1.4406e-04  0:04:59 1347
  3073  1.8334e-03  5.3552e-04  2.1347e-04  1.8019e-03  4.7216e-04  1.4427e-04  0:03:59 1346
  3074  1.8496e-03  5.3209e-04  2.1211e-04  1.8184e-03  4.7304e-04  1.4447e-04  0:03:11 1345
  3075  1.8652e-03  5.1586e-04  2.1208e-04  1.8341e-03  4.7390e-04  1.4461e-04  0:02:33 1344
  3076  1.8814e-03  5.1120e-04  2.1223e-04  1.8502e-03  4.7472e-04  1.4466e-04  0:02:02 1343
  3077  1.8968e-03  5.0746e-04  2.1281e-04  1.8655e-03  4.7546e-04  1.4459e-04  0:01:38 1342
  3078  1.9111e-03  5.0458e-04  2.1319e-04  1.8799e-03  4.7612e-04  1.4447e-04  0:01:18 1341

  iter  continuity  x-velocity  y-velocity      energy           k       omega     time/iter
  3079  1.9245e-03  4.9874e-04  2.1345e-04  1.8932e-03  4.7672e-04  1.4428e-04  0:01:02 1340
  3080  1.9366e-03  4.9883e-04  2.1228e-04  1.9053e-03  4.7728e-04  1.4417e-04  0:00:50 1339
  3081  1.9475e-03  5.0254e-04  2.1217e-04  1.9163e-03  4.7777e-04  1.4403e-04  0:05:08 1338
  3082  1.9582e-03  5.1377e-04  2.1063e-04  1.9271e-03  4.7820e-04  1.4385e-04  0:04:06 1337
  3083  1.9679e-03  5.2811e-04  2.0879e-04  1.9367e-03  4.7852e-04  1.4380e-04  0:03:17 1336
  3084  1.9764e-03  5.4683e-04  2.0760e-04  1.9451e-03  4.7876e-04  1.4394e-04  0:02:37 1335
  3085  1.9832e-03  5.5141e-04  2.0429e-04  1.9518e-03  4.7889e-04  1.4401e-04  0:02:06 1334
  3086  1.9890e-03  5.5690e-04  2.0315e-04  1.9574e-03  4.7895e-04  1.4402e-04  0:01:40 1333
  3087  1.9940e-03  5.6002e-04  2.0436e-04  1.9622e-03  4.7893e-04  1.4395e-04  0:01:20 1332
  3088  1.9986e-03  5.7361e-04  2.0422e-04  1.9666e-03  4.7881e-04  1.4376e-04  0:01:04 1331
  3089  1.9991e-03  5.7278e-04  2.0265e-04  1.9673e-03  4.7861e-04  1.4341e-04  0:00:51 1330

  iter  continuity  x-velocity  y-velocity      energy           k       omega     time/iter
  3090  1.9986e-03  5.6887e-04  2.0104e-04  1.9671e-03  4.7828e-04  1.4305e-04  0:00:41 1329
  3091  1.9983e-03  5.7710e-04  2.0167e-04  1.9669e-03  4.7781e-04  1.4278e-04  0:00:33 1328
  3092  1.9972e-03  5.9198e-04  2.0275e-04  1.9658e-03  4.7724e-04  1.4245e-04  0:04:52 1327
  3093  1.9940e-03  5.8971e-04  1.9998e-04  1.9625e-03  4.7657e-04  1.4219e-04  0:03:53 1326
  3094  1.9905e-03  5.9185e-04  1.9974e-04  1.9591e-03  4.7579e-04  1.4211e-04  0:03:06 1325
  3095  1.9878e-03  6.0177e-04  2.0030e-04  1.9563e-03  4.7489e-04  1.4200e-04  0:02:29 1324
  3096  1.9811e-03  6.0378e-04  1.9985e-04  1.9499e-03  4.7389e-04  1.4186e-04  0:01:59 1323
  3097  1.9754e-03  6.0427e-04  1.9970e-04  1.9444e-03  4.7278e-04  1.4166e-04  0:01:35 1322
  3098  1.9689e-03  6.0480e-04  2.0088e-04  1.9381e-03  4.7160e-04  1.4148e-04  0:01:16 1321
  3099  1.9627e-03  6.1505e-04  2.0252e-04  1.9319e-03  4.7038e-04  1.4133e-04  0:01:01 1320
  3100  1.9575e-03  6.3558e-04  2.0344e-04  1.9267e-03  4.6916e-04  1.4110e-04  0:05:12 1319

  iter  continuity  x-velocity  y-velocity      energy           k       omega     time/iter
  3101  1.9523e-03  6.4550e-04  2.0430e-04  1.9215e-03  4.6794e-04  1.4082e-04  0:04:10 1318
  3102  1.9443e-03  6.4105e-04  2.0433e-04  1.9135e-03  4.6665e-04  1.4054e-04  0:03:20 1317
  3103  1.9360e-03  6.2564e-04  2.0250e-04  1.9053e-03  4.6530e-04  1.4030e-04  0:02:40 1316
  3104  1.9288e-03  6.1365e-04  2.0223e-04  1.8982e-03  4.6389e-04  1.4006e-04  0:02:08 1315
  3105  1.9245e-03  6.1101e-04  2.0707e-04  1.8935e-03  4.6241e-04  1.3968e-04  0:01:42 1314
  3106  1.9238e-03  6.5723e-04  2.0778e-04  1.8923e-03  4.6084e-04  1.3959e-04  0:01:22 1313
  3107  1.9218e-03  6.8472e-04  2.0758e-04  1.8901e-03  4.5920e-04  1.3940e-04  0:01:05 1312
  3108  1.9105e-03  6.7005e-04  2.0393e-04  1.8796e-03  4.5749e-04  1.3915e-04  0:00:52 1311
  3109  1.9018e-03  6.2539e-04  2.0073e-04  1.8716e-03  4.5572e-04  1.3892e-04  0:00:42 1310
  3110  1.8963e-03  6.1556e-04  2.0088e-04  1.8665e-03  4.5387e-04  1.3868e-04  0:00:33 1309
  3111  1.8918e-03  6.1271e-04  2.0219e-04  1.8622e-03  4.5200e-04  1.3848e-04  0:04:48 1308

  iter  continuity  x-velocity  y-velocity      energy           k       omega     time/iter
  3112  1.8878e-03  6.1204e-04  2.0474e-04  1.8583e-03  4.5009e-04  1.3819e-04  0:03:50 1307
  3113  1.8851e-03  6.0643e-04  2.0953e-04  1.8558e-03  4.4813e-04  1.3784e-04  0:03:04 1306
  3114  1.8839e-03  6.0613e-04  2.1327e-04  1.8546e-03  4.4610e-04  1.3755e-04  0:02:27 1305
  3115  1.8835e-03  6.0527e-04  2.1378e-04  1.8540e-03  4.4398e-04  1.3733e-04  0:01:58 1304
  3116  1.8836e-03  6.0025e-04  2.1342e-04  1.8540e-03  4.4178e-04  1.3710e-04  0:01:34 1303
  3117  1.8846e-03  5.9589e-04  2.1255e-04  1.8548e-03  4.3948e-04  1.3683e-04  0:01:15 1302
  3118  1.8861e-03  5.9721e-04  2.1142e-04  1.8562e-03  4.3713e-04  1.3669e-04  0:01:00 1301
  3119  1.8903e-03  6.0598e-04  2.0967e-04  1.8603e-03  4.3471e-04  1.3665e-04  0:00:48 1300
  3120  1.8952e-03  6.0856e-04  2.0793e-04  1.8649e-03  4.3220e-04  1.3657e-04  0:04:58 1299
  3121  1.9022e-03  6.2226e-04  2.0757e-04  1.8714e-03  4.2965e-04  1.3655e-04  0:03:58 1298
  3122  1.9096e-03  6.4790e-04  2.0817e-04  1.8785e-03  4.2702e-04  1.3639e-04  0:03:11 1297

  iter  continuity  x-velocity  y-velocity      energy           k       omega     time/iter
[...]
  3910  1.3326e-03  3.0037e-04  1.1923e-04  1.2862e-03  2.2293e-04  8.9847e-05  0:01:00  509
  3911  1.3295e-03  2.9055e-04  1.1931e-04  1.2831e-03  2.2260e-04  8.9896e-05  0:00:48  508
  3912  1.3262e-03  2.8388e-04  1.2015e-04  1.2798e-03  2.2230e-04  8.9933e-05  0:00:38  507
  3913  1.3236e-03  2.8712e-04  1.2082e-04  1.2773e-03  2.2204e-04  8.9998e-05  0:00:31  506
  3914  1.3210e-03  2.9007e-04  1.2177e-04  1.2749e-03  2.2182e-04  9.0038e-05  0:00:24  505

  iter  continuity  x-velocity  y-velocity      energy           k       omega     time/iter
  3915  1.3187e-03  2.8857e-04  1.2350e-04  1.2725e-03  2.2161e-04  9.0044e-05  0:00:19  504
  3916  1.3159e-03  2.8129e-04  1.2289e-04  1.2697e-03  2.2139e-04  9.0083e-05  0:00:16  503
  3917  1.3134e-03  2.8232e-04  1.2247e-04  1.2672e-03  2.2117e-04  9.0119e-05  0:00:12  502
  3918  1.3110e-03  2.8650e-04  1.2180e-04  1.2649e-03  2.2096e-04  9.0127e-05  0:01:50  501
  3919  1.3088e-03  2.8714e-04  1.2158e-04  1.2628e-03  2.2077e-04  9.0161e-05  0:01:28  500
  3920  1.3066e-03  2.8328e-04  1.2158e-04  1.2606e-03  2.2058e-04  9.0212e-05  0:01:10  499
  3921  1.3046e-03  2.8471e-04  1.2263e-04  1.2586e-03  2.2042e-04  9.0247e-05  0:00:56  498
  3922  1.3029e-03  2.8946e-04  1.2437e-04  1.2570e-03  2.2030e-04  9.0320e-05  0:00:45  497
  3923  1.3016e-03  2.9765e-04  1.2691e-04  1.2558e-03  2.2020e-04  9.0420e-05  0:00:36  496
  3924  1.3002e-03  2.9967e-04  1.2938e-04  1.2545e-03  2.2016e-04  9.0570e-05  0:00:29  495
  3925  1.2990e-03  3.0295e-04  1.3122e-04  1.2535e-03  2.2014e-04  9.0720e-05  0:00:23  494

  iter  continuity  x-velocity  y-velocity      energy           k       omega     time/iter
  3926  1.2980e-03  3.0324e-04  1.3112e-04  1.2526e-03  2.2019e-04  9.0887e-05  0:00:18  493
  3927  1.2976e-03  3.0663e-04  1.3038e-04  1.2522e-03  2.2026e-04  9.1046e-05  0:00:15  492
  3928  1.2977e-03  3.1698e-04  1.2965e-04  1.2523e-03  2.2032e-04  9.1169e-05  0:01:50  491
  3929  1.2978e-03  3.2065e-04  1.2942e-04  1.2525e-03  2.2037e-04  9.1269e-05  0:01:28  490
  3930  1.2972e-03  3.1960e-04  1.2897e-04  1.2521e-03  2.2043e-04  9.1373e-05  0:01:10  489
  3931  1.2968e-03  3.1841e-04  1.2920e-04  1.2521e-03  2.2055e-04  9.1496e-05  0:00:56  488
  3932  1.2968e-03  3.1797e-04  1.2930e-04  1.2524e-03  2.2075e-04  9.1644e-05  0:00:45  487
  3933  1.2972e-03  3.1340e-04  1.2955e-04  1.2530e-03  2.2101e-04  9.1826e-05  0:00:36  486
  3934  1.2988e-03  3.1668e-04  1.3045e-04  1.2548e-03  2.2135e-04  9.2023e-05  0:00:28  485
  3935  1.3006e-03  3.1764e-04  1.3205e-04  1.2569e-03  2.2179e-04  9.2262e-05  0:00:23  484
  3936  1.3028e-03  3.2172e-04  1.3340e-04  1.2595e-03  2.2230e-04  9.2556e-05  0:00:18  483

  iter  continuity  x-velocity  y-velocity      energy           k       omega     time/iter
  3937  1.3061e-03  3.2694e-04  1.3447e-04  1.2631e-03  2.2281e-04  9.2892e-05  0:00:14  482
  3938  1.3104e-03  3.4003e-04  1.3493e-04  1.2676e-03  2.2333e-04  9.3226e-05  0:01:48  481
  3939  1.3144e-03  3.4077e-04  1.3498e-04  1.2718e-03  2.2382e-04  9.3557e-05  0:01:26  480
  3940  1.3182e-03  3.3316e-04  1.3460e-04  1.2758e-03  2.2433e-04  9.3866e-05  0:01:09  479
  3941  1.3223e-03  3.2786e-04  1.3425e-04  1.2802e-03  2.2484e-04  9.4149e-05  0:00:55  478
  3942  1.3266e-03  3.2746e-04  1.3371e-04  1.2848e-03  2.2543e-04  9.4442e-05  0:00:44  477
  3943  1.3309e-03  3.2849e-04  1.3335e-04  1.2894e-03  2.2612e-04  9.4732e-05  0:00:35  476
  3944  1.3351e-03  3.2460e-04  1.3383e-04  1.2938e-03  2.2685e-04  9.5033e-05  0:00:28  475
  3945  1.3397e-03  3.2907e-04  1.3538e-04  1.2987e-03  2.2761e-04  9.5347e-05  0:00:22  474
  3946  1.3441e-03  3.2964e-04  1.3546e-04  1.3035e-03  2.2839e-04  9.5655e-05  0:00:18  473
  3947  1.3492e-03  3.3490e-04  1.3615e-04  1.3090e-03  2.2920e-04  9.5967e-05  0:00:14  472

  iter  continuity  x-velocity  y-velocity      energy           k       omega     time/iter
  3948  1.3546e-03  3.3824e-04  1.3702e-04  1.3147e-03  2.2998e-04  9.6244e-05  0:01:46  471
  3949  1.3601e-03  3.3896e-04  1.3765e-04  1.3206e-03  2.3076e-04  9.6478e-05  0:01:24  470
  3950  1.3659e-03  3.3907e-04  1.3746e-04  1.3267e-03  2.3149e-04  9.6672e-05  0:01:07  469
  3951  1.3720e-03  3.3839e-04  1.3704e-04  1.3332e-03  2.3213e-04  9.6830e-05  0:00:54  468
  3952  1.3790e-03  3.4227e-04  1.3736e-04  1.3406e-03  2.3267e-04  9.6957e-05  0:00:43  467
  3953  1.3858e-03  3.4084e-04  1.3814e-04  1.3478e-03  2.3318e-04  9.7033e-05  0:00:34  466
  3954  1.3932e-03  3.4164e-04  1.3855e-04  1.3554e-03  2.3370e-04  9.7115e-05  0:00:27  465
  3955  1.4011e-03  3.4603e-04  1.3899e-04  1.3637e-03  2.3418e-04  9.7187e-05  0:00:22  464
  3956  1.4094e-03  3.5635e-04  1.3863e-04  1.3723e-03  2.3458e-04  9.7248e-05  0:00:17  463
  3957  1.4184e-03  3.7138e-04  1.3785e-04  1.3816e-03  2.3502e-04  9.7305e-05  0:00:14  462
  3958  1.4267e-03  3.7391e-04  1.3757e-04  1.3901e-03  2.3552e-04  9.7366e-05  0:00:11  461

  iter  continuity  x-velocity  y-velocity      energy           k       omega     time/iter
  3959  1.4347e-03  3.7285e-04  1.3671e-04  1.3983e-03  2.3605e-04  9.7426e-05  0:01:41  460
  3960  1.4429e-03  3.6892e-04  1.3611e-04  1.4068e-03  2.3661e-04  9.7492e-05  0:01:21  459
  3961  1.4512e-03  3.6396e-04  1.3592e-04  1.4155e-03  2.3716e-04  9.7551e-05  0:01:04  458
  3962  1.4590e-03  3.5611e-04  1.3508e-04  1.4237e-03  2.3769e-04  9.7556e-05  0:00:51  457
  3963  1.4673e-03  3.4913e-04  1.3441e-04  1.4324e-03  2.3818e-04  9.7526e-05  0:00:41  456
  3964  1.4764e-03  3.5007e-04  1.3459e-04  1.4418e-03  2.3876e-04  9.7511e-05  0:00:33  455
  3965  1.4851e-03  3.4620e-04  1.3524e-04  1.4509e-03  2.3936e-04  9.7498e-05  0:00:26  454
  3966  1.4943e-03  3.4766e-04  1.3695e-04  1.4605e-03  2.3995e-04  9.7460e-05  0:00:21  453
  3967  1.5039e-03  3.5779e-04  1.3919e-04  1.4705e-03  2.4053e-04  9.7436e-05  0:00:17  452
  3968  1.5137e-03  3.7019e-04  1.4162e-04  1.4808e-03  2.4114e-04  9.7430e-05  0:01:43  451
  3969  1.5239e-03  3.8069e-04  1.4299e-04  1.4913e-03  2.4169e-04  9.7458e-05  0:01:23  450

  iter  continuity  x-velocity  y-velocity      energy           k       omega     time/iter
  3970  1.5342e-03  3.9185e-04  1.4364e-04  1.5020e-03  2.4216e-04  9.7489e-05  0:01:06  449
  3971  1.5441e-03  3.8566e-04  1.4452e-04  1.5122e-03  2.4260e-04  9.7491e-05  0:00:53  448
  3972  1.5537e-03  3.8244e-04  1.4464e-04  1.5222e-03  2.4300e-04  9.7459e-05  0:00:42  447
  3973  1.5636e-03  3.8412e-04  1.4397e-04  1.5325e-03  2.4338e-04  9.7386e-05  0:00:34  446
  3974  1.5739e-03  3.8614e-04  1.4315e-04  1.5431e-03  2.4367e-04  9.7300e-05  0:00:27  445
  3975  1.5842e-03  3.8529e-04  1.4257e-04  1.5537e-03  2.4387e-04  9.7196e-05  0:00:21  444
  3976  1.5941e-03  3.8001e-04  1.4217e-04  1.5639e-03  2.4406e-04  9.7061e-05  0:01:46  443
  3977  1.6040e-03  3.7833e-04  1.4168e-04  1.5741e-03  2.4422e-04  9.6936e-05  0:01:24  442
  3978  1.6141e-03  3.7994e-04  1.4132e-04  1.5845e-03  2.4441e-04  9.6815e-05  0:01:07  441
  3979  1.6240e-03  3.8126e-04  1.4149e-04  1.5947e-03  2.4462e-04  9.6696e-05  0:00:54  440
  3980  1.6342e-03  3.8715e-04  1.4180e-04  1.6052e-03  2.4476e-04  9.6573e-05  0:00:43  439

  iter  continuity  x-velocity  y-velocity      energy           k       omega     time/iter
  3981  1.6444e-03  3.8947e-04  1.4219e-04  1.6156e-03  2.4487e-04  9.6453e-05  0:00:34  438
  3982  1.6540e-03  3.8234e-04  1.4252e-04  1.6254e-03  2.4495e-04  9.6352e-05  0:00:27  437
  3983  1.6635e-03  3.7535e-04  1.4263e-04  1.6351e-03  2.4501e-04  9.6253e-05  0:01:49  436
  3984  1.6732e-03  3.6954e-04  1.4287e-04  1.6449e-03  2.4500e-04  9.6145e-05  0:01:27  435
  3985  1.6829e-03  3.6689e-04  1.4327e-04  1.6548e-03  2.4495e-04  9.6015e-05  0:01:09  434
  3986  1.6926e-03  3.7067e-04  1.4382e-04  1.6647e-03  2.4487e-04  9.5871e-05  0:00:55  433
  3987  1.7021e-03  3.7573e-04  1.4422e-04  1.6744e-03  2.4473e-04  9.5707e-05  0:00:44  432
  3988  1.7114e-03  3.7702e-04  1.4459e-04  1.6839e-03  2.4452e-04  9.5509e-05  0:00:35  431
  3989  1.7204e-03  3.8051e-04  1.4401e-04  1.6931e-03  2.4425e-04  9.5290e-05  0:00:28  430
  3990  1.7291e-03  3.8170e-04  1.4389e-04  1.7020e-03  2.4391e-04  9.5029e-05  0:00:22  429
  3991  1.7372e-03  3.7806e-04  1.4346e-04  1.7102e-03  2.4352e-04  9.4776e-05  0:00:18  428

  iter  continuity  x-velocity  y-velocity      energy           k       omega     time/iter
  3992  1.7448e-03  3.7311e-04  1.4263e-04  1.7179e-03  2.4307e-04  9.4506e-05  0:01:40  427
  3993  1.7520e-03  3.6931e-04  1.4163e-04  1.7253e-03  2.4260e-04  9.4236e-05  0:01:20  426
  3994  1.7590e-03  3.6847e-04  1.4067e-04  1.7325e-03  2.4208e-04  9.3944e-05  0:01:04  425
  3995  1.7657e-03  3.6807e-04  1.3906e-04  1.7393e-03  2.4153e-04  9.3632e-05  0:00:51  424
  3996  1.7720e-03  3.6829e-04  1.3786e-04  1.7457e-03  2.4090e-04  9.3314e-05  0:00:40  423
  3997  1.7778e-03  3.6726e-04  1.3742e-04  1.7516e-03  2.4024e-04  9.2982e-05  0:00:32  422
  3998  1.7834e-03  3.6958e-04  1.3718e-04  1.7574e-03  2.3951e-04  9.2642e-05  0:00:26  421
  3999  1.7889e-03  3.7419e-04  1.3694e-04  1.7631e-03  2.3875e-04  9.2347e-05  0:00:21  420
  4000  1.7946e-03  3.8434e-04  1.3639e-04  1.7689e-03  2.3793e-04  9.2085e-05  0:00:16  419
  4001  1.7998e-03  3.9323e-04  1.3571e-04  1.7742e-03  2.3708e-04  9.1828e-05  0:00:13  418
  4002  1.8043e-03  3.9675e-04  1.3556e-04  1.7788e-03  2.3619e-04  9.1571e-05  0:01:34  417

  iter  continuity  x-velocity  y-velocity      energy           k       omega     time/iter
  4003  1.8081e-03  3.9298e-04  1.3568e-04  1.7826e-03  2.3531e-04  9.1345e-05  0:01:15  416
  4004  1.8115e-03  3.8315e-04  1.3673e-04  1.7860e-03  2.3442e-04  9.1141e-05  0:01:00  415
  4005  1.8148e-03  3.8124e-04  1.3880e-04  1.7894e-03  2.3345e-04  9.0941e-05  0:00:48  414
  4006  1.8176e-03  3.7773e-04  1.3990e-04  1.7922e-03  2.3240e-04  9.0718e-05  0:00:38  413
  4007  1.8202e-03  3.8035e-04  1.3893e-04  1.7949e-03  2.3130e-04  9.0473e-05  0:00:30  412
  4008  1.8223e-03  3.7794e-04  1.3718e-04  1.7971e-03  2.3017e-04  9.0192e-05  0:00:24  411
  4009  1.8242e-03  3.7482e-04  1.3575e-04  1.7990e-03  2.2895e-04  8.9887e-05  0:00:19  410
  4010  1.8256e-03  3.7059e-04  1.3473e-04  1.8005e-03  2.2770e-04  8.9542e-05  0:00:15  409
  4011  1.8268e-03  3.7127e-04  1.3414e-04  1.8017e-03  2.2643e-04  8.9195e-05  0:01:34  408
  4012  1.8272e-03  3.7030e-04  1.3372e-04  1.8023e-03  2.2509e-04  8.8835e-05  0:01:15  407
  4013  1.8275e-03  3.6677e-04  1.3284e-04  1.8027e-03  2.2373e-04  8.8485e-05  0:01:00  406

  iter  continuity  x-velocity  y-velocity      energy           k       omega     time/iter
  4014  1.8278e-03  3.6799e-04  1.3179e-04  1.8031e-03  2.2237e-04  8.8137e-05  0:00:48  405
  4015  1.8277e-03  3.6404e-04  1.3063e-04  1.8031e-03  2.2099e-04  8.7780e-05  0:00:38  404
  4016  1.8277e-03  3.6069e-04  1.2914e-04  1.8031e-03  2.1959e-04  8.7434e-05  0:00:30  403
  4017  1.8279e-03  3.7082e-04  1.2756e-04  1.8034e-03  2.1815e-04  8.7091e-05  0:00:24  402
  4018  1.8273e-03  3.7498e-04  1.2645e-04  1.8028e-03  2.1671e-04  8.6751e-05  0:00:19  401
  4019  1.8259e-03  3.6935e-04  1.2559e-04  1.8016e-03  2.1528e-04  8.6414e-05  0:00:15  400
  4020  1.8241e-03  3.5705e-04  1.2506e-04  1.7997e-03  2.1388e-04  8.6084e-05  0:01:32  399
  4021  1.8218e-03  3.4720e-04  1.2469e-04  1.7976e-03  2.1246e-04  8.5773e-05  0:01:14  398
  4022  1.8197e-03  3.4316e-04  1.2412e-04  1.7956e-03  2.1100e-04  8.5566e-05  0:00:59  397
  4023  1.8173e-03  3.3693e-04  1.2331e-04  1.7932e-03  2.0953e-04  8.5371e-05  0:00:47  396
  4024  1.8145e-03  3.2996e-04  1.2244e-04  1.7906e-03  2.0802e-04  8.5147e-05  0:00:37  395

  iter  continuity  x-velocity  y-velocity      energy           k       omega     time/iter
  4025  1.8118e-03  3.2693e-04  1.2099e-04  1.7879e-03  2.0648e-04  8.4855e-05  0:00:30  394
  4026  1.8089e-03  3.2567e-04  1.1968e-04  1.7851e-03  2.0489e-04  8.4542e-05  0:00:24  393
  4027  1.8059e-03  3.2732e-04  1.1860e-04  1.7822e-03  2.0323e-04  8.4183e-05  0:00:19  392
  4028  1.8027e-03  3.2696e-04  1.1762e-04  1.7790e-03  2.0152e-04  8.3762e-05  0:00:15  391
  4029  1.7992e-03  3.2604e-04  1.1657e-04  1.7756e-03  1.9978e-04  8.3238e-05  0:00:12  390
  4030  1.7956e-03  3.2498e-04  1.1540e-04  1.7720e-03  1.9802e-04  8.2742e-05  0:00:10  389
  4031  1.7918e-03  3.2571e-04  1.1450e-04  1.7682e-03  1.9625e-04  8.2317e-05  0:01:25  388
  4032  1.7876e-03  3.2644e-04  1.1383e-04  1.7641e-03  1.9451e-04  8.1924e-05  0:01:08  387
  4033  1.7835e-03  3.3277e-04  1.1358e-04  1.7600e-03  1.9277e-04  8.1562e-05  0:00:54  386
  4034  1.7790e-03  3.3913e-04  1.1375e-04  1.7556e-03  1.9103e-04  8.1099e-05  0:00:43  385
  4035  1.7742e-03  3.4350e-04  1.1507e-04  1.7508e-03  1.8927e-04  8.0418e-05  0:00:35  384

  iter  continuity  x-velocity  y-velocity      energy           k       omega     time/iter
  4036  1.7687e-03  3.4042e-04  1.1623e-04  1.7452e-03  1.8752e-04  7.9913e-05  0:00:28  383
  4037  1.7625e-03  3.3326e-04  1.1768e-04  1.7390e-03  1.8577e-04  7.9599e-05  0:00:22  382
  4038  1.7560e-03  3.2588e-04  1.1753e-04  1.7325e-03  1.8401e-04  7.9285e-05  0:00:18  381
  4039  1.7493e-03  3.2485e-04  1.1704e-04  1.7258e-03  1.8224e-04  7.8999e-05  0:00:14  380
  4040  1.7420e-03  3.1972e-04  1.1642e-04  1.7186e-03  1.8042e-04  7.8732e-05  0:00:11  379
  4041  1.7348e-03  3.2319e-04  1.1571e-04  1.7114e-03  1.7859e-04  7.8385e-05  0:01:25  378
  4042  1.7270e-03  3.2185e-04  1.1393e-04  1.7037e-03  1.7677e-04  7.8047e-05  0:01:07  377
  4043  1.7189e-03  3.1697e-04  1.1231e-04  1.6956e-03  1.7494e-04  7.7754e-05  0:00:54  376
  4044  1.7104e-03  3.1514e-04  1.1032e-04  1.6871e-03  1.7313e-04  7.7490e-05  0:00:43  375
  4045  1.7012e-03  3.0865e-04  1.0853e-04  1.6781e-03  1.7135e-04  7.7290e-05  0:00:34  374
  4046  1.6921e-03  3.0771e-04  1.0665e-04  1.6691e-03  1.6959e-04  7.7153e-05  0:00:27  373

  iter  continuity  x-velocity  y-velocity      energy           k       omega     time/iter
  4047  1.6829e-03  3.0703e-04  1.0500e-04  1.6600e-03  1.6786e-04  7.7026e-05  0:00:22  372
  4048  1.6735e-03  3.0839e-04  1.0367e-04  1.6506e-03  1.6611e-04  7.6911e-05  0:00:17  371
  4049  1.6635e-03  3.0571e-04  1.0228e-04  1.6407e-03  1.6440e-04  7.6755e-05  0:00:14  370
  4050  1.6533e-03  3.0395e-04  1.0107e-04  1.6306e-03  1.6271e-04  7.6596e-05  0:00:11  369
  4051  1.6429e-03  3.0352e-04  9.9870e-05  1.6202e-03  1.6102e-04  7.6425e-05  0:00:09  368
  4052  1.6323e-03  3.0357e-04  9.8477e-05  1.6097e-03  1.5932e-04  7.6239e-05  0:01:20  367
  4053  1.6214e-03  3.0436e-04  9.6665e-05  1.5989e-03  1.5762e-04  7.6042e-05  0:01:04  366
  4054  1.6103e-03  3.0464e-04  9.4915e-05  1.5878e-03  1.5591e-04  7.5853e-05  0:00:51  365
  4055  1.5988e-03  3.0277e-04  9.3259e-05  1.5764e-03  1.5420e-04  7.5652e-05  0:00:41  364
  4056  1.5868e-03  2.9413e-04  9.1468e-05  1.5644e-03  1.5252e-04  7.5439e-05  0:00:33  363
  4057  1.5749e-03  2.9539e-04  9.0348e-05  1.5526e-03  1.5083e-04  7.5236e-05  0:00:26  362

  iter  continuity  x-velocity  y-velocity      energy           k       omega     time/iter
  4058  1.5630e-03  2.9902e-04  9.0007e-05  1.5407e-03  1.4922e-04  7.4988e-05  0:00:21  361
  4059  1.5510e-03  3.0818e-04  9.0779e-05  1.5288e-03  1.4766e-04  7.4769e-05  0:00:17  360
  4060  1.5389e-03  3.1535e-04  9.3279e-05  1.5167e-03  1.4614e-04  7.4578e-05  0:00:13  359
  4061  1.5262e-03  3.1603e-04  9.6600e-05  1.5039e-03  1.4465e-04  7.4387e-05  0:01:22  358
  4062  1.5129e-03  3.1241e-04  9.8295e-05  1.4907e-03  1.4318e-04  7.4216e-05  0:01:06  357
  4063  1.4994e-03  3.0919e-04  9.8732e-05  1.4772e-03  1.4173e-04  7.3951e-05  0:00:52  356
  4064  1.4854e-03  3.0112e-04  9.7888e-05  1.4634e-03  1.4031e-04  7.3645e-05  0:00:42  355
  4065  1.4718e-03  3.0166e-04  9.5835e-05  1.4498e-03  1.3893e-04  7.3422e-05  0:00:33  354
  4066  1.4579e-03  2.9795e-04  9.4222e-05  1.4360e-03  1.3754e-04  7.3254e-05  0:00:27  353
  4067  1.4441e-03  2.9901e-04  9.2961e-05  1.4223e-03  1.3620e-04  7.3077e-05  0:00:21  352
  4068  1.4303e-03  3.0147e-04  9.1438e-05  1.4086e-03  1.3486e-04  7.2861e-05  0:00:17  351

  iter  continuity  x-velocity  y-velocity      energy           k       omega     time/iter
  4069  1.4166e-03  3.0441e-04  9.0255e-05  1.3949e-03  1.3360e-04  7.2644e-05  0:00:13  350
  4070  1.4027e-03  3.0274e-04  8.9324e-05  1.3811e-03  1.3236e-04  7.2417e-05  0:00:11  349
  4071  1.3888e-03  2.9987e-04  8.9078e-05  1.3672e-03  1.3119e-04  7.2205e-05  0:01:18  348
  4072  1.3753e-03  3.0184e-04  8.9161e-05  1.3538e-03  1.3005e-04  7.1989e-05  0:01:02  347
  4073  1.3618e-03  3.0189e-04  8.9568e-05  1.3403e-03  1.2900e-04  7.1720e-05  0:00:50  346
  4074  1.3480e-03  2.9691e-04  8.9824e-05  1.3267e-03  1.2798e-04  7.1500e-05  0:00:40  345
  4075  1.3350e-03  3.0368e-04  8.9394e-05  1.3137e-03  1.2703e-04  7.1302e-05  0:00:32  344
  4076  1.3223e-03  3.1176e-04  8.8637e-05  1.3010e-03  1.2615e-04  7.1115e-05  0:00:25  343
  4077  1.3096e-03  3.1837e-04  8.8622e-05  1.2883e-03  1.2536e-04  7.0958e-05  0:00:20  342
  4078  1.2964e-03  3.1693e-04  9.0105e-05  1.2750e-03  1.2465e-04  7.0788e-05  0:00:16  341
  4079  1.2829e-03  3.1758e-04  9.2021e-05  1.2616e-03  1.2400e-04  7.0647e-05  0:00:13  340

  iter  continuity  x-velocity  y-velocity      energy           k       omega     time/iter
  4080  1.2692e-03  3.1325e-04  9.2772e-05  1.2480e-03  1.2336e-04  7.0554e-05  0:00:10  339
  4081  1.2556e-03  3.0750e-04  9.3209e-05  1.2345e-03  1.2276e-04  7.0451e-05  0:01:16  338
  4082  1.2416e-03  2.9584e-04  9.4055e-05  1.2205e-03  1.2224e-04  7.0366e-05  0:01:00  337
  4083  1.2277e-03  2.8610e-04  9.4622e-05  1.2067e-03  1.2179e-04  7.0277e-05  0:00:48  336
  4084  1.2139e-03  2.7873e-04  9.4076e-05  1.1930e-03  1.2139e-04  7.0171e-05  0:00:38  335
  4085  1.2001e-03  2.7139e-04  9.3118e-05  1.1793e-03  1.2105e-04  7.0090e-05  0:00:31  334
  4086  1.1868e-03  2.6791e-04  9.2515e-05  1.1661e-03  1.2075e-04  7.0012e-05  0:00:24  333
  4087  1.1739e-03  2.6942e-04  9.1596e-05  1.1533e-03  1.2051e-04  6.9911e-05  0:00:20  332
  4088  1.1614e-03  2.7714e-04  9.0868e-05  1.1408e-03  1.2031e-04  6.9772e-05  0:00:16  331
  4089  1.1490e-03  2.8625e-04  9.0564e-05  1.1285e-03  1.2017e-04  6.9603e-05  0:00:12  330
  4090  1.1360e-03  2.8150e-04  9.0075e-05  1.1156e-03  1.2007e-04  6.9467e-05  0:00:10  329

  iter  continuity  x-velocity  y-velocity      energy           k       omega     time/iter
  4091  1.1232e-03  2.8016e-04  8.9381e-05  1.1029e-03  1.2005e-04  6.9282e-05  0:00:08  328
  4092  1.1104e-03  2.7662e-04  8.8738e-05  1.0901e-03  1.2007e-04  6.9050e-05  0:01:12  327
  4093  1.0978e-03  2.7455e-04  8.7658e-05  1.0774e-03  1.2019e-04  6.8806e-05  0:00:57  326
  4094  1.0853e-03  2.7754e-04  8.6675e-05  1.0649e-03  1.2042e-04  6.8503e-05  0:00:46  325
  4095  1.0734e-03  2.8677e-04  8.6441e-05  1.0529e-03  1.2077e-04  6.8227e-05  0:00:36  324
  4096  1.0623e-03  3.0683e-04  8.6510e-05  1.0417e-03  1.2128e-04  6.8025e-05  0:00:29  323
  4097  1.0507e-03  3.1784e-04  8.7159e-05  1.0300e-03  1.2187e-04  6.7835e-05  0:00:23  322
  4098  1.0378e-03  3.2033e-04  8.7803e-05  1.0170e-03  1.2256e-04  6.7592e-05  0:00:18  321
  4099  1.0241e-03  3.1562e-04  8.7136e-05  1.0032e-03  1.2334e-04  6.7391e-05  0:00:15  320
  4100  1.0099e-03  3.0472e-04  8.6434e-05  9.8909e-04  1.2419e-04  6.7234e-05  0:00:12  319
  4101  9.9694e-04  3.1388e-04  8.5522e-05  9.7631e-04  1.2510e-04  6.7009e-05  0:00:09  318
! 4101 solution is converged

> /plot/plot yes loading.txt yes no no absolute-pressure yes 1 0 upper-blade ()

> ;exit yes

> /exit y

Posting ANSYS Product Improvement Program performance data 
Done.
(cx-gui-do cx-activate-item "Question*OK")
