
              Welcome to ANSYS Fluent 2021 R2

              Copyright 1987-2021 ANSYS, Inc. All Rights Reserved.
              Unauthorized use, distribution or duplication is prohibited.
              This product is subject to U.S. laws governing export and re-export.
              For full Legal Notice, see documentation.

Build Time: May 28 2021 13:54:56 EDT  Build Id: 10201  
 

     --------------------------------------------------------------
     This is an academic version of ANSYS FLUENT. Usage of this product
     license is limited to the terms and conditions specified in your ANSYS
     license form, additional terms section.
     --------------------------------------------------------------
Host spawning Node 0 on machine "WL-CH-009" (win64).

-------------------------------------------------------------------------------
ID    Hostname   Core   O.S.         PID    Vendor                       
-------------------------------------------------------------------------------
n31   WL-CH-009  32/36  Windows-x64  37036  Intel(R) Xeon(R) W-2295      
n30   WL-CH-009  31/36  Windows-x64  45676  Intel(R) Xeon(R) W-2295      
n29   WL-CH-009  30/36  Windows-x64  38948  Intel(R) Xeon(R) W-2295      
n28   WL-CH-009  29/36  Windows-x64  44512  Intel(R) Xeon(R) W-2295      
n27   WL-CH-009  28/36  Windows-x64  39860  Intel(R) Xeon(R) W-2295      
n26   WL-CH-009  27/36  Windows-x64  26676  Intel(R) Xeon(R) W-2295      
n25   WL-CH-009  26/36  Windows-x64  33204  Intel(R) Xeon(R) W-2295      
n24   WL-CH-009  25/36  Windows-x64  43540  Intel(R) Xeon(R) W-2295      
n23   WL-CH-009  24/36  Windows-x64  8776   Intel(R) Xeon(R) W-2295      
n22   WL-CH-009  23/36  Windows-x64  44004  Intel(R) Xeon(R) W-2295      
n21   WL-CH-009  22/36  Windows-x64  17840  Intel(R) Xeon(R) W-2295      
n20   WL-CH-009  21/36  Windows-x64  43780  Intel(R) Xeon(R) W-2295      
n19   WL-CH-009  20/36  Windows-x64  8704   Intel(R) Xeon(R) W-2295      
n18   WL-CH-009  19/36  Windows-x64  14412  Intel(R) Xeon(R) W-2295      
n17   WL-CH-009  18/36  Windows-x64  39744  Intel(R) Xeon(R) W-2295      
n16   WL-CH-009  17/36  Windows-x64  4948   Intel(R) Xeon(R) W-2295      
n15   WL-CH-009  16/36  Windows-x64  35460  Intel(R) Xeon(R) W-2295      
n14   WL-CH-009  15/36  Windows-x64  28864  Intel(R) Xeon(R) W-2295      
n13   WL-CH-009  14/36  Windows-x64  25676  Intel(R) Xeon(R) W-2295      
n12   WL-CH-009  13/36  Windows-x64  45892  Intel(R) Xeon(R) W-2295      
-------------------------------------------------------------------------------
ID    Hostname   Core   O.S.         PID    Vendor                       
-------------------------------------------------------------------------------
n11   WL-CH-009  12/36  Windows-x64  30340  Intel(R) Xeon(R) W-2295      
n10   WL-CH-009  11/36  Windows-x64  37504  Intel(R) Xeon(R) W-2295      
n9    WL-CH-009  10/36  Windows-x64  37416  Intel(R) Xeon(R) W-2295      
n8    WL-CH-009  9/36   Windows-x64  37452  Intel(R) Xeon(R) W-2295      
n7    WL-CH-009  8/36   Windows-x64  21256  Intel(R) Xeon(R) W-2295      
n6    WL-CH-009  7/36   Windows-x64  26092  Intel(R) Xeon(R) W-2295      
n5    WL-CH-009  6/36   Windows-x64  44328  Intel(R) Xeon(R) W-2295      
n4    WL-CH-009  5/36   Windows-x64  35252  Intel(R) Xeon(R) W-2295      
n3    WL-CH-009  4/36   Windows-x64  42324  Intel(R) Xeon(R) W-2295      
n2    WL-CH-009  3/36   Windows-x64  32716  Intel(R) Xeon(R) W-2295      
n1    WL-CH-009  2/36   Windows-x64  23896  Intel(R) Xeon(R) W-2295      
n0*   WL-CH-009  1/36   Windows-x64  37096  Intel(R) Xeon(R) W-2295      
host  WL-CH-009         Windows-x64  41844  Intel(R) Xeon(R) W-2295      

MPI Option Selected: intel
Selected system interconnect: default
-------------------------------------------------------------------------------

Cleanup script file is E:\\MATLAB\\RANS_optimisation\\cleanup-fluent-WL-CH-009-41844.bat

Posting ANSYS Product Improvement Program startup data
Done.

Reading journal file E:\MATLAB\RANS_optimisation\run17\fluent_input.jou...

> /sync-chdir E:\MATLAB\RANS_optimisation\run17

> /file/read-case "grid.msh"
Reading "grid.msh"...

Buffering for file scan...

  112722 quadrilateral cells, zone  9.
  224998 2D interior faces, zone  2.
Warning: Reversing 238 faces, zone  2.
     237 2D pressure-inlet faces, zone  3.
Warning: Reversing 237 faces, zone  3.
     477 2D pressure-outlet faces, zone  4.
Warning: Reversing 477 faces, zone  4.
     477 2D pressure-outlet faces, zone  5.
     207 2D pressure-outlet faces, zone  6.
     254 2D wall faces, zone  7.
Warning: Reversing 15 faces, zone  7.
     252 2D wall faces, zone  8.
Warning: Reversing 223 faces, zone  8.
  113674 nodes.

Building...
     mesh
	auto partitioning mesh by Metis (fast),
	distributing mesh
		parts................................,
		faces................................,
		nodes................................,
		cells................................,
        bandwidth reduction using Reverse Cuthill-McKee: 2716/83 = 32.7229
     materials,
     interface,
     domains,
     zones,
	fluid-9
	wall-8
	wall-7
	pressure-outlet-6
	pressure-outlet-5
	pressure-outlet-4
	pressure-inlet-3
	interior-2
     parallel,
Done.

Preparing mesh for display...
Done.
 

> /define/boundary-conditions/modify-zones/zone-name 3 inlet 

> /define/boundary-conditions/modify-zones/zone-name 4 upper 

> /define/boundary-conditions/modify-zones/zone-name 5 lower 

> /define/boundary-conditions/modify-zones/zone-name 6 outlet

> /define/boundary-conditions/modify-zones/zone-name 7 upper-blade

> /define/boundary-conditions/modify-zones/zone-name 8 lower-blade

> /define/materials/change-create air air air is a fluid
yes 
Density
ideal-gas no data required.

yes 
Cp (Specific Heat)
constant 1005 
yes 
Thermal Conductivity
expression "DynamicViscosity*1005 [J/(kg K)]/0.72"
 yes 
Viscosity
sutherland three-coefficient-method 5.83247e-04 273 110.4 
no no no

Note: Enabling energy equation as required by material density method.

> /define/operating-conditions/operating-pressure 0

> /define/models/viscous/kw-sst? yes

> /define/boundary-conditions/zone-type inlet pressure-inlet 

> /define/boundary-conditions/pressure-inlet (inlet)
inlet yes no 74575.2 no 46984 no 300 no yes no no yes 0.5 1

> /define/boundary-conditions/zone-type outlet pressure-outlet 

> /define/boundary-conditions/bc-settings/pressure-outlet 0. 65 

> /define/boundary-conditions/pressure-outlet (outlet upper lower)
outlet yes no 46984 no 300 no yes no no yes 0.5 1 yes no no

> /define/boundary-conditions/copy-bc outlet (upper lower)Copy outlet boundary conditions to lower
Copy outlet boundary conditions to upper


> /define/boundary-conditions/wall (upper-blade lower-blade)
upper-blade 0 no 0 no no no 0 no no no no 0 no 0.5 no 1

> /define/boundary-conditions/copy-bc upper-blade (lower-blade)Copy upper-blade boundary conditions to lower-blade


> /define/models/solver/densit-based-implicit yes

> /file/read-data E:\MATLAB\RANS_optimisation\clean.dat

Reading "E:\MATLAB\RANS_optimisation\clean.dat"...



Parallel variables...
Done.

> ;/solve/initialize/initialize-flow
;/solve/initialize/compute-defaults/pressure-inlet inlet
;/solve/initialize/initialize-flow yes
;/solve/initialize/hyb-initialization
/solve/iterate 2000

  iter  continuity  x-velocity  y-velocity      energy           k       omega     time/iter
  2419  9.9521e-04  3.5719e-04  6.8654e-05  9.7828e-04  1.7105e-04  4.2984e-05  0:00:00 2000
  2420  8.9078e-02  5.8523e-02  5.4488e-02  8.9086e-02  3.9853e-03  1.1028e-02  0:00:00 1999
  2421  7.3429e-02  4.3877e-02  5.2155e-02  7.3797e-02  3.8057e-03  9.1295e-03  0:00:00 1998
  2422  5.6481e-02  3.0599e-02  4.9667e-02  5.6622e-02  3.6310e-03  7.2512e-03  0:00:00 1997
  2423  4.2911e-02  2.3119e-02  4.2800e-02  4.2561e-02  3.4555e-03  5.9123e-03  0:00:00 1996
  2424  3.3712e-02  1.9459e-02  3.4576e-02  3.3119e-02  3.2784e-03  5.4936e-03  0:00:00 1995
  2425  2.7894e-02  1.7463e-02  2.7097e-02  2.7366e-02  3.1006e-03  5.1244e-03  0:00:00 1994
  2426  2.4416e-02  1.6047e-02  2.1182e-02  2.4087e-02  2.9265e-03  4.6831e-03  0:00:00 1993
  2427  2.2479e-02  1.4846e-02  1.6900e-02  2.2338e-02  2.7552e-03  4.1869e-03  0:00:00 1992
  2428  2.1301e-02  1.3708e-02  1.4019e-02  2.1290e-02  2.5944e-03  3.7543e-03  0:33:11 1991
  2429  2.0361e-02  1.2564e-02  1.2203e-02  2.0427e-02  2.4465e-03  3.3119e-03  0:26:32 1990

  iter  continuity  x-velocity  y-velocity      energy           k       omega     time/iter
  2430  1.9397e-02  1.1407e-02  1.1089e-02  1.9498e-02  2.3123e-03  2.8993e-03  0:21:13 1989
  2431  1.8322e-02  1.0248e-02  1.0369e-02  1.8428e-02  2.1948e-03  2.5719e-03  0:16:58 1988
  2432  1.7162e-02  9.1245e-03  9.8384e-03  1.7250e-02  2.0924e-03  2.3693e-03  0:13:34 1987
  2433  1.5983e-02  8.0704e-03  9.3642e-03  1.6036e-02  2.0020e-03  2.2261e-03  0:10:51 1986
  2434  1.4865e-02  7.1336e-03  8.8939e-03  1.4872e-02  1.9211e-03  2.1180e-03  0:08:40 1985
  2435  1.3858e-02  6.3554e-03  8.4141e-03  1.3815e-02  1.8491e-03  2.0439e-03  0:06:56 1984
  2436  1.2965e-02  5.7869e-03  7.9242e-03  1.2869e-02  1.7849e-03  2.0141e-03  0:05:33 1983
  2437  1.2173e-02  5.4426e-03  7.4242e-03  1.2025e-02  1.7266e-03  1.9985e-03  0:04:26 1982
  2438  1.1507e-02  5.3292e-03  6.9402e-03  1.1311e-02  1.6742e-03  1.9826e-03  0:10:09 1981
  2439  1.0967e-02  5.3860e-03  6.4869e-03  1.0731e-02  1.6272e-03  1.9771e-03  0:08:07 1980
  2440  1.0544e-02  5.5474e-03  6.0869e-03  1.0273e-02  1.5842e-03  1.9768e-03  0:06:29 1979

  iter  continuity  x-velocity  y-velocity      energy           k       omega     time/iter
  2441  1.0242e-02  5.7460e-03  5.7430e-03  9.9420e-03  1.5449e-03  1.9709e-03  0:05:11 1978
  2442  1.0076e-02  5.9341e-03  5.4583e-03  9.7515e-03  1.5098e-03  1.9585e-03  0:04:09 1977
  2443  1.0062e-02  6.0801e-03  5.2309e-03  9.7165e-03  1.4774e-03  1.9438e-03  0:03:19 1976
  2444  1.0230e-02  6.1697e-03  5.0645e-03  9.8690e-03  1.4476e-03  1.9305e-03  0:02:39 1975
  2445  1.0601e-02  6.2009e-03  4.9478e-03  1.0228e-02  1.4213e-03  1.9190e-03  0:02:07 1974
  2446  1.1179e-02  6.1796e-03  4.8684e-03  1.0800e-02  1.3981e-03  1.9010e-03  0:01:42 1973
  2447  1.1943e-02  6.1158e-03  4.8175e-03  1.1561e-02  1.3778e-03  1.8735e-03  0:07:56 1972
  2448  1.2864e-02  6.0213e-03  4.7682e-03  1.2481e-02  1.3612e-03  1.8369e-03  0:06:20 1971
  2449  1.3920e-02  5.9069e-03  4.7070e-03  1.3538e-02  1.3469e-03  1.7975e-03  0:05:04 1970
  2450  1.5075e-02  5.7865e-03  4.6280e-03  1.4697e-02  1.3358e-03  1.7573e-03  0:04:03 1969
  2451  1.6264e-02  5.6714e-03  4.5298e-03  1.5891e-02  1.3276e-03  1.7210e-03  0:03:14 1968

  iter  continuity  x-velocity  y-velocity      energy           k       omega     time/iter
  2452  1.7420e-02  5.5725e-03  4.4089e-03  1.7053e-02  1.3206e-03  1.6877e-03  0:02:36 1967
  2453  1.8491e-02  5.4965e-03  4.2686e-03  1.8132e-02  1.3154e-03  1.6606e-03  0:02:04 1966
  2454  1.9447e-02  5.4448e-03  4.1055e-03  1.9097e-02  1.3109e-03  1.6380e-03  0:01:39 1965
  2455  2.0314e-02  5.4189e-03  3.9240e-03  1.9975e-02  1.3071e-03  1.6166e-03  0:01:19 1964
  2456  2.1063e-02  5.4160e-03  3.7261e-03  2.0736e-02  1.3038e-03  1.5972e-03  0:07:36 1963
  2457  2.1682e-02  5.4362e-03  3.5335e-03  2.1370e-02  1.3011e-03  1.5865e-03  0:06:05 1962
  2458  2.2136e-02  5.4721e-03  3.3538e-03  2.1839e-02  1.2992e-03  1.5827e-03  0:04:52 1961
  2459  2.2398e-02  5.5213e-03  3.1882e-03  2.2117e-02  1.2983e-03  1.5823e-03  0:03:53 1960
  2460  2.2466e-02  5.5768e-03  3.0466e-03  2.2201e-02  1.2983e-03  1.5835e-03  0:03:06 1959
  2461  2.2370e-02  5.6284e-03  2.9311e-03  2.2120e-02  1.2997e-03  1.5881e-03  0:02:29 1958
  2462  2.2139e-02  5.6638e-03  2.8473e-03  2.1904e-02  1.3014e-03  1.5958e-03  0:01:59 1957

  iter  continuity  x-velocity  y-velocity      energy           k       omega     time/iter
  2463  2.1801e-02  5.6859e-03  2.8020e-03  2.1582e-02  1.3048e-03  1.6045e-03  0:01:35 1956
  2464  2.1383e-02  5.6904e-03  2.7808e-03  2.1178e-02  1.3085e-03  1.6111e-03  0:01:16 1955
  2465  2.0883e-02  5.6636e-03  2.7746e-03  2.0692e-02  1.3136e-03  1.6165e-03  0:01:01 1954
  2466  2.0290e-02  5.6211e-03  2.7743e-03  2.0112e-02  1.3187e-03  1.6231e-03  0:07:19 1953
  2467  1.9615e-02  5.5632e-03  2.7749e-03  1.9448e-02  1.3254e-03  1.6267e-03  0:05:51 1952
  2468  1.8870e-02  5.4956e-03  2.7885e-03  1.8712e-02  1.3326e-03  1.6264e-03  0:04:41 1951
  2469  1.8078e-02  5.4170e-03  2.7973e-03  1.7927e-02  1.3399e-03  1.6272e-03  0:03:45 1950
  2470  1.7252e-02  5.3297e-03  2.8056e-03  1.7107e-02  1.3474e-03  1.6275e-03  0:03:00 1949
  2471  1.6407e-02  5.2351e-03  2.8104e-03  1.6266e-02  1.3547e-03  1.6233e-03  0:02:24 1948
  2472  1.5554e-02  5.1324e-03  2.8100e-03  1.5416e-02  1.3626e-03  1.6212e-03  0:01:55 1947
  2473  1.4705e-02  5.0213e-03  2.8135e-03  1.4568e-02  1.3694e-03  1.6162e-03  0:01:32 1946

  iter  continuity  x-velocity  y-velocity      energy           k       omega     time/iter
  2474  1.3857e-02  4.9090e-03  2.8111e-03  1.3719e-02  1.3758e-03  1.6053e-03  0:01:13 1945
  2475  1.3014e-02  4.7940e-03  2.8003e-03  1.2875e-02  1.3817e-03  1.5954e-03  0:07:27 1944
  2476  1.2200e-02  4.6811e-03  2.7883e-03  1.2057e-02  1.3866e-03  1.5757e-03  0:05:58 1943
  2477  1.1432e-02  4.5669e-03  2.7707e-03  1.1285e-02  1.3895e-03  1.5577e-03  0:04:46 1942
  2478  1.0736e-02  4.4536e-03  2.7547e-03  1.0587e-02  1.3924e-03  1.5396e-03  0:03:49 1941
  2479  1.0108e-02  4.3437e-03  2.7411e-03  9.9561e-03  1.3966e-03  1.5214e-03  0:03:03 1940
  2480  9.5528e-03  4.2406e-03  2.7243e-03  9.3988e-03  1.4011e-03  1.5050e-03  0:02:26 1939
  2481  9.0745e-03  4.1392e-03  2.7019e-03  8.9193e-03  1.4057e-03  1.4905e-03  0:01:57 1938
  2482  8.6572e-03  4.0376e-03  2.6750e-03  8.5001e-03  1.4097e-03  1.4722e-03  0:01:34 1937
  2483  8.3205e-03  3.9367e-03  2.6490e-03  8.1635e-03  1.4135e-03  1.4583e-03  0:01:15 1936
  2484  8.0431e-03  3.8454e-03  2.6197e-03  7.8862e-03  1.4176e-03  1.4461e-03  0:01:00 1935

  iter  continuity  x-velocity  y-velocity      energy           k       omega     time/iter
  2485  7.8408e-03  3.7595e-03  2.5823e-03  7.6850e-03  1.4226e-03  1.4341e-03  0:07:15 1934
  2486  7.7065e-03  3.6785e-03  2.5459e-03  7.5527e-03  1.4286e-03  1.4254e-03  0:05:48 1933
  2487  7.6331e-03  3.5994e-03  2.5050e-03  7.4820e-03  1.4356e-03  1.4162e-03  0:04:38 1932
  2488  7.6136e-03  3.5286e-03  2.4671e-03  7.4663e-03  1.4424e-03  1.4046e-03  0:03:42 1931
  2489  7.6366e-03  3.4653e-03  2.4258e-03  7.4939e-03  1.4491e-03  1.3959e-03  0:02:58 1930
  2490  7.6824e-03  3.4080e-03  2.3843e-03  7.5435e-03  1.4553e-03  1.3831e-03  0:02:22 1929
  2491  7.7503e-03  3.3580e-03  2.3383e-03  7.6153e-03  1.4611e-03  1.3710e-03  0:01:54 1928
  2492  7.8388e-03  3.3047e-03  2.2916e-03  7.7080e-03  1.4678e-03  1.3640e-03  0:01:31 1927
  2493  7.9339e-03  3.2537e-03  2.2378e-03  7.8066e-03  1.4747e-03  1.3554e-03  0:01:13 1926
  2494  8.0336e-03  3.2076e-03  2.1814e-03  7.9090e-03  1.4824e-03  1.3452e-03  0:00:58 1925
  2495  8.1444e-03  3.1700e-03  2.1239e-03  8.0227e-03  1.4903e-03  1.3363e-03  0:07:11 1924

  iter  continuity  x-velocity  y-velocity      energy           k       omega     time/iter
  2496  8.2600e-03  3.1383e-03  2.0706e-03  8.1412e-03  1.4983e-03  1.3280e-03  0:05:45 1923
  2497  8.3745e-03  3.1108e-03  2.0178e-03  8.2586e-03  1.5048e-03  1.3176e-03  0:04:36 1922
  2498  8.4860e-03  3.0910e-03  1.9619e-03  8.3729e-03  1.5103e-03  1.3079e-03  0:03:40 1921
  2499  8.5943e-03  3.0762e-03  1.9107e-03  8.4843e-03  1.5170e-03  1.2967e-03  0:02:56 1920
  2500  8.6877e-03  3.0610e-03  1.8621e-03  8.5798e-03  1.5247e-03  1.2850e-03  0:02:21 1919
  2501  8.7633e-03  3.0440e-03  1.8102e-03  8.6576e-03  1.5317e-03  1.2736e-03  0:01:53 1918
  2502  8.8263e-03  3.0295e-03  1.7579e-03  8.7230e-03  1.5385e-03  1.2624e-03  0:01:30 1917
  2503  8.8789e-03  3.0186e-03  1.7135e-03  8.7784e-03  1.5463e-03  1.2508e-03  0:07:35 1916
  2504  8.9136e-03  3.0086e-03  1.6727e-03  8.8156e-03  1.5538e-03  1.2376e-03  0:06:04 1915
  2505  8.9327e-03  2.9993e-03  1.6318e-03  8.8371e-03  1.5613e-03  1.2239e-03  0:04:51 1914
  2506  8.9406e-03  2.9905e-03  1.5999e-03  8.8479e-03  1.5685e-03  1.2100e-03  0:03:53 1913

  iter  continuity  x-velocity  y-velocity      energy           k       omega     time/iter
  2507  8.9268e-03  2.9812e-03  1.5723e-03  8.8366e-03  1.5766e-03  1.1957e-03  0:03:06 1912
  2508  8.8973e-03  2.9737e-03  1.5450e-03  8.8095e-03  1.5845e-03  1.1819e-03  0:02:29 1911
  2509  8.8593e-03  2.9676e-03  1.5223e-03  8.7744e-03  1.5927e-03  1.1694e-03  0:01:59 1910
  2510  8.8080e-03  2.9631e-03  1.5032e-03  8.7262e-03  1.6016e-03  1.1575e-03  0:01:35 1909
  2511  8.7451e-03  2.9587e-03  1.4862e-03  8.6667e-03  1.6115e-03  1.1470e-03  0:01:16 1908
  2512  8.6694e-03  2.9539e-03  1.4725e-03  8.5944e-03  1.6209e-03  1.1373e-03  0:07:22 1907
  2513  8.5767e-03  2.9475e-03  1.4623e-03  8.5043e-03  1.6311e-03  1.1271e-03  0:05:54 1906
  2514  8.4782e-03  2.9409e-03  1.4580e-03  8.4084e-03  1.6412e-03  1.1163e-03  0:04:43 1905
  2515  8.3735e-03  2.9329e-03  1.4557e-03  8.3062e-03  1.6517e-03  1.1043e-03  0:03:46 1904
  2516  8.2663e-03  2.9273e-03  1.4575e-03  8.2017e-03  1.6617e-03  1.0926e-03  0:03:01 1903
  2517  8.1568e-03  2.9224e-03  1.4566e-03  8.0949e-03  1.6730e-03  1.0818e-03  0:02:25 1902

  iter  continuity  x-velocity  y-velocity      energy           k       omega     time/iter
  2518  8.0475e-03  2.9183e-03  1.4625e-03  7.9880e-03  1.6840e-03  1.0722e-03  0:08:16 1901
  2519  7.9293e-03  2.9099e-03  1.4657e-03  7.8714e-03  1.6943e-03  1.0634e-03  0:06:36 1900
  2520  7.8126e-03  2.9022e-03  1.4667e-03  7.7561e-03  1.7046e-03  1.0536e-03  0:05:17 1899
  2521  7.6985e-03  2.8935e-03  1.4710e-03  7.6433e-03  1.7152e-03  1.0431e-03  0:04:13 1898
  2522  7.5907e-03  2.8856e-03  1.4752e-03  7.5367e-03  1.7252e-03  1.0330e-03  0:03:23 1897
  2523  7.4918e-03  2.8788e-03  1.4795e-03  7.4389e-03  1.7346e-03  1.0250e-03  0:02:42 1896
  2524  7.4069e-03  2.8714e-03  1.4822e-03  7.3550e-03  1.7434e-03  1.0162e-03  0:02:10 1895
  2525  7.3204e-03  2.8563e-03  1.4821e-03  7.2690e-03  1.7516e-03  1.0060e-03  0:01:44 1894
  2526  7.2440e-03  2.8399e-03  1.4826e-03  7.1930e-03  1.7593e-03  9.9612e-04  0:01:23 1893
  2527  7.1638e-03  2.8243e-03  1.4825e-03  7.1128e-03  1.7667e-03  9.8685e-04  0:01:06 1892
  2528  7.0927e-03  2.8067e-03  1.4800e-03  7.0417e-03  1.7732e-03  9.7818e-04  0:07:11 1891

  iter  continuity  x-velocity  y-velocity      energy           k       omega     time/iter
  2529  7.0328e-03  2.7888e-03  1.4790e-03  6.9816e-03  1.7792e-03  9.7114e-04  0:05:45 1890
  2530  6.9814e-03  2.7693e-03  1.4806e-03  6.9298e-03  1.7862e-03  9.6472e-04  0:04:36 1889
  2531  6.9376e-03  2.7492e-03  1.4768e-03  6.8853e-03  1.7929e-03  9.5798e-04  0:03:40 1888
  2532  6.8915e-03  2.7257e-03  1.4738e-03  6.8382e-03  1.7980e-03  9.5071e-04  0:02:56 1887
  2533  6.8517e-03  2.6989e-03  1.4672e-03  6.7974e-03  1.8025e-03  9.4327e-04  0:02:21 1886
  2534  6.8157e-03  2.6692e-03  1.4664e-03  6.7600e-03  1.8077e-03  9.3649e-04  0:01:53 1885
  2535  6.7884e-03  2.6387e-03  1.4547e-03  6.7312e-03  1.8125e-03  9.3030e-04  0:01:30 1884
  2536  6.7672e-03  2.6073e-03  1.4428e-03  6.7085e-03  1.8169e-03  9.2405e-04  0:01:12 1883
  2537  6.7533e-03  2.5722e-03  1.4290e-03  6.6931e-03  1.8209e-03  9.1809e-04  0:00:58 1882
  2538  6.7465e-03  2.5342e-03  1.4133e-03  6.6847e-03  1.8252e-03  9.1184e-04  0:00:46 1881
  2539  6.7390e-03  2.4949e-03  1.3984e-03  6.6756e-03  1.8293e-03  9.0594e-04  0:06:53 1880

  iter  continuity  x-velocity  y-velocity      energy           k       omega     time/iter
  2540  6.7337e-03  2.4540e-03  1.3810e-03  6.6687e-03  1.8331e-03  9.0006e-04  0:05:30 1879
  2541  6.7296e-03  2.4128e-03  1.3618e-03  6.6628e-03  1.8370e-03  8.9401e-04  0:04:24 1878
  2542  6.7244e-03  2.3725e-03  1.3432e-03  6.6560e-03  1.8406e-03  8.8824e-04  0:03:31 1877
  2543  6.7196e-03  2.3347e-03  1.3235e-03  6.6497e-03  1.8443e-03  8.8226e-04  0:02:49 1876
  2544  6.7126e-03  2.2967e-03  1.3041e-03  6.6412e-03  1.8477e-03  8.7705e-04  0:02:15 1875
  2545  6.7014e-03  2.2532e-03  1.2825e-03  6.6285e-03  1.8512e-03  8.7241e-04  0:01:48 1874
  2546  6.6893e-03  2.2111e-03  1.2607e-03  6.6149e-03  1.8541e-03  8.6730e-04  0:01:26 1873
  2547  6.6677e-03  2.1702e-03  1.2382e-03  6.5921e-03  1.8570e-03  8.6152e-04  0:01:09 1872
  2548  6.6424e-03  2.1303e-03  1.2114e-03  6.5655e-03  1.8603e-03  8.5495e-04  0:07:09 1871
  2549  6.6110e-03  2.0909e-03  1.1866e-03  6.5329e-03  1.8629e-03  8.4759e-04  0:05:43 1870
  2550  6.5725e-03  2.0531e-03  1.1638e-03  6.4933e-03  1.8654e-03  8.4102e-04  0:04:34 1869

  iter  continuity  x-velocity  y-velocity      energy           k       omega     time/iter
  2551  6.5276e-03  2.0168e-03  1.1412e-03  6.4474e-03  1.8681e-03  8.3379e-04  0:03:39 1868
  2552  6.4753e-03  1.9818e-03  1.1185e-03  6.3942e-03  1.8707e-03  8.2577e-04  0:02:55 1867
  2553  6.4164e-03  1.9483e-03  1.0967e-03  6.3347e-03  1.8728e-03  8.1717e-04  0:02:20 1866
  2554  6.3533e-03  1.9177e-03  1.0763e-03  6.2711e-03  1.8737e-03  8.0906e-04  0:01:52 1865
  2555  6.2893e-03  1.8889e-03  1.0573e-03  6.2069e-03  1.8732e-03  8.0073e-04  0:01:30 1864
  2556  6.2258e-03  1.8623e-03  1.0398e-03  6.1433e-03  1.8721e-03  7.9264e-04  0:01:12 1863
  2557  6.1636e-03  1.8376e-03  1.0234e-03  6.0814e-03  1.8704e-03  7.8398e-04  0:00:57 1862
  2558  6.1023e-03  1.8142e-03  1.0093e-03  6.0207e-03  1.8674e-03  7.7468e-04  0:06:58 1861
  2559  6.0449e-03  1.7917e-03  9.9715e-04  5.9643e-03  1.8628e-03  7.6556e-04  0:05:34 1860
  2560  5.9914e-03  1.7703e-03  9.8676e-04  5.9121e-03  1.8566e-03  7.5655e-04  0:04:27 1859
  2561  5.9552e-03  1.7510e-03  9.7789e-04  5.8775e-03  1.8491e-03  7.4724e-04  0:03:34 1858

  iter  continuity  x-velocity  y-velocity      energy           k       omega     time/iter
  2562  5.9350e-03  1.7328e-03  9.7084e-04  5.8592e-03  1.8402e-03  7.3840e-04  0:02:51 1857
  2563  5.9159e-03  1.7160e-03  9.6543e-04  5.8422e-03  1.8292e-03  7.2987e-04  0:02:17 1856
  2564  5.9067e-03  1.7002e-03  9.6127e-04  5.8352e-03  1.8167e-03  7.2080e-04  0:01:49 1855
  2565  5.9109e-03  1.6840e-03  9.5818e-04  5.8418e-03  1.8027e-03  7.1251e-04  0:01:27 1854
  2566  5.9259e-03  1.6679e-03  9.5589e-04  5.8593e-03  1.7876e-03  7.0422e-04  0:01:10 1853
  2567  5.9549e-03  1.6525e-03  9.5486e-04  5.8907e-03  1.7717e-03  6.9500e-04  0:07:06 1852
  2568  6.0011e-03  1.6381e-03  9.5455e-04  5.9392e-03  1.7545e-03  6.8642e-04  0:05:41 1851
  2569  6.0584e-03  1.6250e-03  9.5483e-04  5.9987e-03  1.7365e-03  6.7792e-04  0:04:32 1850
  2570  6.1266e-03  1.6131e-03  9.5617e-04  6.0689e-03  1.7192e-03  6.7009e-04  0:03:38 1849
  2571  6.2025e-03  1.6016e-03  9.5854e-04  6.1465e-03  1.7034e-03  6.6282e-04  0:02:54 1848
  2572  6.2833e-03  1.5905e-03  9.6202e-04  6.2288e-03  1.6874e-03  6.5555e-04  0:02:19 1847

  iter  continuity  x-velocity  y-velocity      energy           k       omega     time/iter
  2573  6.3657e-03  1.5788e-03  9.6661e-04  6.3123e-03  1.6714e-03  6.4823e-04  0:01:51 1846
  2574  6.4457e-03  1.5666e-03  9.7208e-04  6.3932e-03  1.6556e-03  6.4109e-04  0:01:29 1845
  2575  6.5206e-03  1.5554e-03  9.7824e-04  6.4686e-03  1.6402e-03  6.3394e-04  0:01:11 1844
  2576  6.5904e-03  1.5453e-03  9.8485e-04  6.5386e-03  1.6255e-03  6.2726e-04  0:00:57 1843
  2577  6.6551e-03  1.5337e-03  9.9176e-04  6.6032e-03  1.6118e-03  6.2146e-04  0:06:54 1842
  2578  6.7090e-03  1.5214e-03  9.9926e-04  6.6568e-03  1.5986e-03  6.1592e-04  0:05:31 1841
  2579  6.7517e-03  1.5099e-03  1.0070e-03  6.6989e-03  1.5860e-03  6.1049e-04  0:04:25 1840
  2580  6.7753e-03  1.5000e-03  1.0150e-03  6.7217e-03  1.5743e-03  6.0558e-04  0:03:32 1839
  2581  6.7824e-03  1.4884e-03  1.0227e-03  6.7280e-03  1.5630e-03  6.0066e-04  0:02:49 1838
  2582  6.7737e-03  1.4779e-03  1.0296e-03  6.7182e-03  1.5528e-03  5.9540e-04  0:02:15 1837
  2583  6.7490e-03  1.4666e-03  1.0361e-03  6.6924e-03  1.5437e-03  5.9012e-04  0:01:48 1836

  iter  continuity  x-velocity  y-velocity      energy           k       omega     time/iter
  2584  6.7074e-03  1.4530e-03  1.0419e-03  6.6496e-03  1.5358e-03  5.8503e-04  0:01:26 1835
  2585  6.6508e-03  1.4407e-03  1.0470e-03  6.5917e-03  1.5290e-03  5.8040e-04  0:01:09 1834
  2586  6.5799e-03  1.4270e-03  1.0512e-03  6.5195e-03  1.5230e-03  5.7556e-04  0:07:02 1833
  2587  6.4964e-03  1.4117e-03  1.0540e-03  6.4346e-03  1.5176e-03  5.6963e-04  0:05:37 1832
  2588  6.4006e-03  1.3963e-03  1.0560e-03  6.3375e-03  1.5131e-03  5.6369e-04  0:04:30 1831
  2589  6.2937e-03  1.3807e-03  1.0568e-03  6.2291e-03  1.5093e-03  5.5881e-04  0:03:36 1830
  2590  6.1773e-03  1.3644e-03  1.0561e-03  6.1114e-03  1.5061e-03  5.5255e-04  0:02:52 1829
  2591  6.0529e-03  1.3493e-03  1.0544e-03  5.9856e-03  1.5032e-03  5.4715e-04  0:02:18 1828
  2592  5.9225e-03  1.3364e-03  1.0516e-03  5.8539e-03  1.5010e-03  5.4267e-04  0:01:50 1827
  2593  5.7885e-03  1.3246e-03  1.0473e-03  5.7186e-03  1.4996e-03  5.3804e-04  0:01:28 1826
  2594  5.6542e-03  1.3105e-03  1.0409e-03  5.5831e-03  1.4991e-03  5.3381e-04  0:01:10 1825

  iter  continuity  x-velocity  y-velocity      energy           k       omega     time/iter
  2595  5.5227e-03  1.2936e-03  1.0346e-03  5.4505e-03  1.4992e-03  5.2983e-04  0:00:56 1824
  2596  5.3975e-03  1.2752e-03  1.0275e-03  5.3243e-03  1.5001e-03  5.2595e-04  0:06:50 1823
  2597  5.2826e-03  1.2579e-03  1.0193e-03  5.2084e-03  1.5013e-03  5.2247e-04  0:05:28 1822
  2598  5.1809e-03  1.2428e-03  1.0100e-03  5.1060e-03  1.5026e-03  5.1902e-04  0:04:22 1821
  2599  5.0938e-03  1.2298e-03  9.9922e-04  5.0184e-03  1.5042e-03  5.1565e-04  0:03:29 1820
  2600  5.0235e-03  1.2180e-03  9.8758e-04  4.9478e-03  1.5059e-03  5.1208e-04  0:02:47 1819
  2601  4.9716e-03  1.2060e-03  9.7525e-04  4.8959e-03  1.5077e-03  5.0803e-04  0:02:14 1818
  2602  4.9400e-03  1.1937e-03  9.6218e-04  4.8645e-03  1.5092e-03  5.0404e-04  0:01:47 1817
  2603  4.9293e-03  1.1792e-03  9.4850e-04  4.8543e-03  1.5107e-03  5.0063e-04  0:01:26 1816
  2604  4.9383e-03  1.1635e-03  9.3429e-04  4.8640e-03  1.5121e-03  4.9755e-04  0:01:08 1815
  2605  4.9655e-03  1.1476e-03  9.1939e-04  4.8921e-03  1.5132e-03  4.9386e-04  0:00:55 1814

  iter  continuity  x-velocity  y-velocity      energy           k       omega     time/iter
  2606  5.0084e-03  1.1307e-03  9.0385e-04  4.9360e-03  1.5142e-03  4.8980e-04  0:06:46 1813
  2607  5.0639e-03  1.1144e-03  8.8787e-04  4.9927e-03  1.5151e-03  4.8645e-04  0:05:25 1812
  2608  5.1289e-03  1.0990e-03  8.7167e-04  5.0589e-03  1.5155e-03  4.8283e-04  0:04:20 1811
  2609  5.1995e-03  1.0845e-03  8.5524e-04  5.1309e-03  1.5158e-03  4.7887e-04  0:03:28 1810
  2610  5.2720e-03  1.0699e-03  8.3888e-04  5.2048e-03  1.5155e-03  4.7471e-04  0:02:46 1809
  2611  5.3430e-03  1.0552e-03  8.2272e-04  5.2772e-03  1.5150e-03  4.7066e-04  0:02:13 1808
  2612  5.4085e-03  1.0417e-03  8.0689e-04  5.3441e-03  1.5142e-03  4.6672e-04  0:01:46 1807
  2613  5.4651e-03  1.0306e-03  7.9147e-04  5.4022e-03  1.5126e-03  4.6278e-04  0:01:25 1806
  2614  5.5103e-03  1.0215e-03  7.7667e-04  5.4489e-03  1.5105e-03  4.5877e-04  0:01:08 1805
  2615  5.5410e-03  1.0128e-03  7.6270e-04  5.4810e-03  1.5074e-03  4.5484e-04  0:00:54 1804
  2616  5.5567e-03  1.0046e-03  7.4959e-04  5.4982e-03  1.5034e-03  4.5129e-04  0:06:44 1803

  iter  continuity  x-velocity  y-velocity      energy           k       omega     time/iter
  2617  5.5558e-03  9.9356e-04  7.3760e-04  5.4987e-03  1.4989e-03  4.4753e-04  0:05:23 1802
  2618  5.5350e-03  9.8125e-04  7.2691e-04  5.4794e-03  1.4938e-03  4.4382e-04  0:04:18 1801
  2619  5.5002e-03  9.7080e-04  7.1767e-04  5.4460e-03  1.4876e-03  4.4007e-04  0:03:26 1800
  2620  5.4504e-03  9.6360e-04  7.0995e-04  5.3975e-03  1.4811e-03  4.3654e-04  0:02:45 1799
  2621  5.3783e-03  9.5880e-04  7.0385e-04  5.3268e-03  1.4742e-03  4.3303e-04  0:02:12 1798
  2622  5.2774e-03  9.5474e-04  6.9959e-04  5.2272e-03  1.4671e-03  4.2962e-04  0:01:46 1797
  2623  5.1608e-03  9.5217e-04  6.9642e-04  5.1119e-03  1.4595e-03  4.2647e-04  0:01:24 1796
  2624  5.0329e-03  9.5173e-04  6.9412e-04  4.9853e-03  1.4517e-03  4.2322e-04  0:01:07 1795
  2625  4.8956e-03  9.5328e-04  6.9289e-04  4.8492e-03  1.4433e-03  4.1965e-04  0:00:54 1794
  2626  4.7509e-03  9.5932e-04  6.9253e-04  4.7056e-03  1.4344e-03  4.1591e-04  0:06:42 1793
  2627  4.6018e-03  9.6112e-04  6.9271e-04  4.5577e-03  1.4250e-03  4.1241e-04  0:05:21 1792

  iter  continuity  x-velocity  y-velocity      energy           k       omega     time/iter
  2628  4.4531e-03  9.5429e-04  6.9298e-04  4.4099e-03  1.4149e-03  4.0953e-04  0:04:17 1791
  2629  4.3093e-03  9.4786e-04  6.9342e-04  4.2672e-03  1.4045e-03  4.0644e-04  0:03:25 1790
  2630  4.1741e-03  9.4384e-04  6.9421e-04  4.1329e-03  1.3934e-03  4.0335e-04  0:02:44 1789
  2631  4.0528e-03  9.4103e-04  6.9475e-04  4.0125e-03  1.3819e-03  4.0053e-04  0:02:11 1788
  2632  3.9485e-03  9.3400e-04  6.9477e-04  3.9089e-03  1.3700e-03  3.9718e-04  0:01:45 1787
  2633  3.8645e-03  9.2523e-04  6.9417e-04  3.8256e-03  1.3578e-03  3.9415e-04  0:01:24 1786
  2634  3.8011e-03  9.1756e-04  6.9270e-04  3.7628e-03  1.3454e-03  3.9150e-04  0:01:07 1785
  2635  3.7583e-03  9.1538e-04  6.9050e-04  3.7205e-03  1.3329e-03  3.8850e-04  0:00:54 1784
  2636  3.7315e-03  9.1765e-04  6.8738e-04  3.6941e-03  1.3203e-03  3.8522e-04  0:06:39 1783
  2637  3.7296e-03  9.2064e-04  6.8393e-04  3.6926e-03  1.3076e-03  3.8285e-04  0:05:19 1782
  2638  3.7498e-03  9.3317e-04  6.8014e-04  3.7131e-03  1.2953e-03  3.8016e-04  0:04:15 1781

  iter  continuity  x-velocity  y-velocity      energy           k       omega     time/iter
  2639  3.7850e-03  9.4467e-04  6.7531e-04  3.7484e-03  1.2830e-03  3.7763e-04  0:03:24 1780
  2640  3.8287e-03  9.3600e-04  6.6957e-04  3.7922e-03  1.2712e-03  3.7511e-04  0:02:43 1779
  2641  3.8769e-03  9.2229e-04  6.6310e-04  3.8403e-03  1.2599e-03  3.7223e-04  0:02:11 1778
  2642  3.9258e-03  9.1123e-04  6.5626e-04  3.8890e-03  1.2489e-03  3.7000e-04  0:01:44 1777
  2643  3.9727e-03  9.0737e-04  6.4921e-04  3.9356e-03  1.2381e-03  3.6761e-04  0:01:23 1776
  2644  4.0134e-03  9.0528e-04  6.4191e-04  3.9760e-03  1.2277e-03  3.6505e-04  0:01:07 1775
  2645  4.0459e-03  9.0744e-04  6.3440e-04  4.0081e-03  1.2173e-03  3.6255e-04  0:06:48 1774
  2646  4.0675e-03  9.0062e-04  6.2662e-04  4.0293e-03  1.2069e-03  3.6079e-04  0:05:26 1773
  2647  4.0764e-03  8.9206e-04  6.1840e-04  4.0378e-03  1.1970e-03  3.5927e-04  0:04:21 1772
  2648  4.0701e-03  8.8449e-04  6.0992e-04  4.0311e-03  1.1877e-03  3.5782e-04  0:03:29 1771
  2649  4.0465e-03  8.7380e-04  6.0125e-04  4.0072e-03  1.1793e-03  3.5649e-04  0:02:47 1770

  iter  continuity  x-velocity  y-velocity      energy           k       omega     time/iter
  2650  4.0052e-03  8.6364e-04  5.9248e-04  3.9656e-03  1.1712e-03  3.5549e-04  0:02:13 1769
  2651  3.9468e-03  8.5522e-04  5.8366e-04  3.9069e-03  1.1636e-03  3.5469e-04  0:01:47 1768
  2652  3.8718e-03  8.5036e-04  5.7492e-04  3.8318e-03  1.1563e-03  3.5369e-04  0:01:25 1767
  2653  3.7823e-03  8.4888e-04  5.6608e-04  3.7422e-03  1.1494e-03  3.5285e-04  0:07:01 1766
  2654  3.6789e-03  8.5074e-04  5.5753e-04  3.6387e-03  1.1421e-03  3.5225e-04  0:05:37 1765
  2655  3.5629e-03  8.5705e-04  5.4932e-04  3.5227e-03  1.1350e-03  3.5175e-04  0:04:29 1764
  2656  3.4364e-03  8.6524e-04  5.4093e-04  3.3963e-03  1.1280e-03  3.5127e-04  0:03:35 1763
  2657  3.3017e-03  8.6858e-04  5.3270e-04  3.2616e-03  1.1211e-03  3.5075e-04  0:02:52 1762
  2658  3.1630e-03  8.6675e-04  5.2435e-04  3.1230e-03  1.1135e-03  3.5018e-04  0:02:18 1761
  2659  3.0241e-03  8.6327e-04  5.1724e-04  2.9843e-03  1.1060e-03  3.4955e-04  0:01:50 1760
  2660  2.8897e-03  8.6003e-04  5.1019e-04  2.8499e-03  1.0981e-03  3.4906e-04  0:01:28 1759

  iter  continuity  x-velocity  y-velocity      energy           k       omega     time/iter
  2661  2.7633e-03  8.5665e-04  5.0285e-04  2.7236e-03  1.0908e-03  3.4843e-04  0:01:10 1758
  2662  2.6497e-03  8.5042e-04  4.9589e-04  2.6101e-03  1.0834e-03  3.4746e-04  0:00:56 1757
  2663  2.5544e-03  8.4688e-04  4.8894e-04  2.5150e-03  1.0766e-03  3.4590e-04  0:00:45 1756
  2664  2.4828e-03  8.4618e-04  4.8210e-04  2.4436e-03  1.0705e-03  3.4515e-04  0:06:27 1755
  2665  2.4391e-03  8.4559e-04  4.7509e-04  2.4002e-03  1.0644e-03  3.4450e-04  0:05:09 1754
  2666  2.4240e-03  8.4491e-04  4.6837e-04  2.3854e-03  1.0587e-03  3.4344e-04  0:04:07 1753
  2667  2.4377e-03  8.4053e-04  4.6181e-04  2.3995e-03  1.0532e-03  3.4189e-04  0:03:18 1752
  2668  2.4775e-03  8.3479e-04  4.5562e-04  2.4397e-03  1.0480e-03  3.4043e-04  0:02:38 1751
  2669  2.5401e-03  8.2748e-04  4.5006e-04  2.5026e-03  1.0429e-03  3.3925e-04  0:02:06 1750
  2670  2.6214e-03  8.1812e-04  4.4497e-04  2.5843e-03  1.0379e-03  3.3743e-04  0:01:41 1749
  2671  2.7178e-03  8.1036e-04  4.4004e-04  2.6809e-03  1.0331e-03  3.3597e-04  0:01:21 1748

  iter  continuity  x-velocity  y-velocity      energy           k       omega     time/iter
  2672  2.8245e-03  8.0346e-04  4.3543e-04  2.7878e-03  1.0287e-03  3.3449e-04  0:01:05 1747
  2673  2.9362e-03  7.9810e-04  4.3102e-04  2.8997e-03  1.0243e-03  3.3265e-04  0:00:52 1746
  2674  3.0492e-03  7.9411e-04  4.2613e-04  3.0127e-03  1.0199e-03  3.3097e-04  0:06:30 1745
  2675  3.1598e-03  7.9124e-04  4.2125e-04  3.1234e-03  1.0157e-03  3.2958e-04  0:05:12 1744
  2676  3.2642e-03  7.9164e-04  4.1708e-04  3.2279e-03  1.0115e-03  3.2815e-04  0:04:10 1743
  2677  3.3607e-03  7.9270e-04  4.1359e-04  3.3244e-03  1.0076e-03  3.2669e-04  0:03:19 1742
  2678  3.4472e-03  7.8674e-04  4.1067e-04  3.4110e-03  1.0037e-03  3.2514e-04  0:02:40 1741
  2679  3.5227e-03  7.7871e-04  4.0804e-04  3.4865e-03  1.0002e-03  3.2381e-04  0:02:08 1740
  2680  3.5870e-03  7.7044e-04  4.0565e-04  3.5509e-03  9.9701e-04  3.2268e-04  0:01:42 1739
  2681  3.6399e-03  7.6319e-04  4.0344e-04  3.6039e-03  9.9422e-04  3.2163e-04  0:01:22 1738
  2682  3.6810e-03  7.5585e-04  4.0120e-04  3.6452e-03  9.9175e-04  3.2082e-04  0:01:05 1737

  iter  continuity  x-velocity  y-velocity      energy           k       omega     time/iter
  2683  3.7104e-03  7.4959e-04  3.9855e-04  3.6748e-03  9.9002e-04  3.2018e-04  0:00:52 1736
  2684  3.7283e-03  7.4049e-04  3.9573e-04  3.6929e-03  9.8884e-04  3.1938e-04  0:06:29 1735
  2685  3.7352e-03  7.3304e-04  3.9310e-04  3.7001e-03  9.8809e-04  3.1872e-04  0:05:11 1734
  2686  3.7318e-03  7.2493e-04  3.9078e-04  3.6969e-03  9.8775e-04  3.1834e-04  0:04:08 1733
  2687  3.7195e-03  7.1822e-04  3.8849e-04  3.6847e-03  9.8766e-04  3.1749e-04  0:03:19 1732
  2688  3.6991e-03  7.1252e-04  3.8604e-04  3.6646e-03  9.8781e-04  3.1661e-04  0:02:39 1731
  2689  3.6721e-03  7.0807e-04  3.8344e-04  3.6379e-03  9.8796e-04  3.1565e-04  0:02:07 1730
  2690  3.6394e-03  7.0550e-04  3.8081e-04  3.6054e-03  9.8811e-04  3.1463e-04  0:01:42 1729
  2691  3.6022e-03  7.0378e-04  3.7796e-04  3.5684e-03  9.8812e-04  3.1374e-04  0:01:21 1728
  2692  3.5617e-03  7.0200e-04  3.7486e-04  3.5280e-03  9.8806e-04  3.1297e-04  0:01:05 1727
  2693  3.5190e-03  7.0084e-04  3.7149e-04  3.4855e-03  9.8767e-04  3.1204e-04  0:00:52 1726

  iter  continuity  x-velocity  y-velocity      energy           k       omega     time/iter
  2694  3.4754e-03  6.9793e-04  3.6795e-04  3.4421e-03  9.8703e-04  3.1077e-04  0:06:26 1725
  2695  3.4320e-03  6.9726e-04  3.6441e-04  3.3988e-03  9.8615e-04  3.0897e-04  0:05:09 1724
  2696  3.3898e-03  6.9594e-04  3.6081e-04  3.3567e-03  9.8502e-04  3.0779e-04  0:04:07 1723
  2697  3.3495e-03  6.9307e-04  3.5692e-04  3.3164e-03  9.8364e-04  3.0644e-04  0:03:18 1722
  2698  3.3120e-03  6.9078e-04  3.5270e-04  3.2788e-03  9.8187e-04  3.0494e-04  0:02:38 1721
  2699  3.2775e-03  6.9173e-04  3.4855e-04  3.2443e-03  9.7976e-04  3.0336e-04  0:02:06 1720
  2700  3.2465e-03  6.9742e-04  3.4447e-04  3.2132e-03  9.7795e-04  3.0164e-04  0:01:41 1719
  2701  3.2190e-03  7.0069e-04  3.4035e-04  3.1856e-03  9.7601e-04  2.9997e-04  0:01:21 1718
  2702  3.1948e-03  6.9776e-04  3.3614e-04  3.1614e-03  9.7396e-04  2.9806e-04  0:01:05 1717
  2703  3.1744e-03  6.9333e-04  3.3184e-04  3.1409e-03  9.7174e-04  2.9637e-04  0:06:35 1716
  2704  3.1575e-03  6.8717e-04  3.2768e-04  3.1238e-03  9.6957e-04  2.9419e-04  0:05:16 1715

  iter  continuity  x-velocity  y-velocity      energy           k       omega     time/iter
  2705  3.1432e-03  6.7739e-04  3.2368e-04  3.1095e-03  9.6746e-04  2.9207e-04  0:04:12 1714
  2706  3.1314e-03  6.6788e-04  3.2027e-04  3.0976e-03  9.6539e-04  2.9034e-04  0:03:22 1713
  2707  3.1219e-03  6.5677e-04  3.1668e-04  3.0880e-03  9.6328e-04  2.8829e-04  0:02:41 1712
  2708  3.1143e-03  6.4561e-04  3.1335e-04  3.0803e-03  9.6110e-04  2.8633e-04  0:02:09 1711
  2709  3.1084e-03  6.3603e-04  3.1017e-04  3.0743e-03  9.5895e-04  2.8427e-04  0:01:43 1710
  2710  3.1031e-03  6.2790e-04  3.0666e-04  3.0688e-03  9.5666e-04  2.8211e-04  0:01:22 1709
  2711  3.0980e-03  6.2131e-04  3.0319e-04  3.0636e-03  9.5428e-04  2.7991e-04  0:01:06 1708
  2712  3.0927e-03  6.1768e-04  2.9977e-04  3.0580e-03  9.5187e-04  2.7771e-04  0:00:53 1707
  2713  3.0866e-03  6.2095e-04  2.9677e-04  3.0517e-03  9.4936e-04  2.7523e-04  0:00:42 1706
  2714  3.0792e-03  6.3205e-04  2.9434e-04  3.0441e-03  9.4680e-04  2.7254e-04  0:06:15 1705
  2715  3.0692e-03  6.4319e-04  2.9186e-04  3.0339e-03  9.4401e-04  2.6976e-04  0:05:00 1704

  iter  continuity  x-velocity  y-velocity      energy           k       omega     time/iter
  2716  3.0554e-03  6.4416e-04  2.8916e-04  3.0200e-03  9.4081e-04  2.6678e-04  0:04:00 1703
  2717  3.0379e-03  6.3578e-04  2.8727e-04  3.0023e-03  9.3728e-04  2.6379e-04  0:03:12 1702
  2718  3.0165e-03  6.3006e-04  2.8579e-04  2.9809e-03  9.3342e-04  2.6089e-04  0:02:33 1701
  2719  2.9916e-03  6.3234e-04  2.8471e-04  2.9557e-03  9.2943e-04  2.5813e-04  0:02:02 1700
  2720  2.9625e-03  6.4047e-04  2.8406e-04  2.9264e-03  9.2516e-04  2.5543e-04  0:01:38 1699
  2721  2.9286e-03  6.4824e-04  2.8353e-04  2.8924e-03  9.2052e-04  2.5278e-04  0:01:18 1698
  2722  2.8900e-03  6.5341e-04  2.8329e-04  2.8535e-03  9.1574e-04  2.5037e-04  0:01:03 1697
  2723  2.8468e-03  6.5114e-04  2.8355e-04  2.8101e-03  9.1072e-04  2.4810e-04  0:00:50 1696
  2724  2.7991e-03  6.4511e-04  2.8421e-04  2.7622e-03  9.0564e-04  2.4586e-04  0:06:19 1695
  2725  2.7478e-03  6.4024e-04  2.8503e-04  2.7107e-03  9.0045e-04  2.4369e-04  0:05:03 1694
  2726  2.6934e-03  6.3745e-04  2.8618e-04  2.6560e-03  8.9534e-04  2.4167e-04  0:04:02 1693

  iter  continuity  x-velocity  y-velocity      energy           k       omega     time/iter
  2727  2.6369e-03  6.3715e-04  2.8735e-04  2.5992e-03  8.9021e-04  2.3985e-04  0:03:14 1692
  2728  2.5787e-03  6.3739e-04  2.8868e-04  2.5407e-03  8.8504e-04  2.3815e-04  0:02:35 1691
  2729  2.5197e-03  6.4182e-04  2.9003e-04  2.4813e-03  8.7999e-04  2.3663e-04  0:02:04 1690
  2730  2.4608e-03  6.4826e-04  2.9154e-04  2.4221e-03  8.7522e-04  2.3515e-04  0:01:39 1689
  2731  2.4032e-03  6.5583e-04  2.9341e-04  2.3641e-03  8.7079e-04  2.3385e-04  0:01:19 1688
  2732  2.3474e-03  6.6627e-04  2.9501e-04  2.3079e-03  8.6642e-04  2.3283e-04  0:01:03 1687
  2733  2.2946e-03  6.7567e-04  2.9659e-04  2.2547e-03  8.6204e-04  2.3193e-04  0:06:28 1686
  2734  2.2454e-03  6.8182e-04  2.9855e-04  2.2050e-03  8.5762e-04  2.3107e-04  0:05:10 1685
  2735  2.2008e-03  6.8651e-04  3.0023e-04  2.1599e-03  8.5337e-04  2.3052e-04  0:04:08 1684
  2736  2.1615e-03  6.8556e-04  3.0155e-04  2.1202e-03  8.4905e-04  2.3031e-04  0:03:18 1683
  2737  2.1282e-03  6.8557e-04  3.0213e-04  2.0864e-03  8.4454e-04  2.3014e-04  0:02:38 1682

  iter  continuity  x-velocity  y-velocity      energy           k       omega     time/iter
  2738  2.1015e-03  6.8983e-04  3.0176e-04  2.0593e-03  8.3980e-04  2.3067e-04  0:02:07 1681
  2739  2.0813e-03  6.9627e-04  3.0098e-04  2.0388e-03  8.3479e-04  2.3108e-04  0:01:41 1680
  2740  2.0674e-03  7.1027e-04  3.0000e-04  2.0247e-03  8.2941e-04  2.3174e-04  0:01:21 1679
  2741  2.0583e-03  7.1419e-04  2.9876e-04  2.0155e-03  8.2385e-04  2.3225e-04  0:01:05 1678
  2742  2.0546e-03  7.1773e-04  2.9767e-04  2.0118e-03  8.1794e-04  2.3296e-04  0:06:27 1677
  2743  2.0560e-03  7.2103e-04  2.9717e-04  2.0132e-03  8.1180e-04  2.3427e-04  0:05:10 1676
  2744  2.0608e-03  7.1862e-04  2.9643e-04  2.0180e-03  8.0532e-04  2.3567e-04  0:04:07 1675
  2745  2.0691e-03  7.2154e-04  2.9547e-04  2.0262e-03  7.9854e-04  2.3704e-04  0:03:18 1674
  2746  2.0802e-03  7.3057e-04  2.9492e-04  2.0372e-03  7.9149e-04  2.3856e-04  0:02:38 1673
  2747  2.0926e-03  7.4290e-04  2.9487e-04  2.0495e-03  7.8409e-04  2.4030e-04  0:02:06 1672
  2748  2.1062e-03  7.5567e-04  2.9482e-04  2.0631e-03  7.7647e-04  2.4196e-04  0:01:41 1671

  iter  continuity  x-velocity  y-velocity      energy           k       omega     time/iter
  2749  2.1182e-03  7.6969e-04  2.9409e-04  2.0749e-03  7.6860e-04  2.4353e-04  0:01:21 1670
  2750  2.1291e-03  7.6618e-04  2.9480e-04  2.0858e-03  7.6055e-04  2.4502e-04  0:01:05 1669
  2751  2.1395e-03  7.6856e-04  2.9546e-04  2.0959e-03  7.5226e-04  2.4694e-04  0:00:52 1668
  2752  2.1492e-03  7.7834e-04  2.9490e-04  2.1053e-03  7.4382e-04  2.4852e-04  0:00:41 1667
  2753  2.1573e-03  7.9068e-04  2.9400e-04  2.1130e-03  7.3534e-04  2.5041e-04  0:06:06 1666
  2754  2.1640e-03  8.0647e-04  2.9376e-04  2.1189e-03  7.2682e-04  2.5211e-04  0:04:53 1665
  2755  2.1698e-03  8.2783e-04  2.9361e-04  2.1240e-03  7.1815e-04  2.5406e-04  0:03:54 1664
  2756  2.1715e-03  8.3253e-04  2.9235e-04  2.1250e-03  7.0944e-04  2.5592e-04  0:03:07 1663
  2757  2.1750e-03  8.4726e-04  2.9215e-04  2.1276e-03  7.0074e-04  2.5735e-04  0:02:30 1662
  2758  2.1771e-03  8.6390e-04  2.9446e-04  2.1288e-03  6.9204e-04  2.5902e-04  0:02:00 1661
  2759  2.1783e-03  8.6692e-04  2.9563e-04  2.1290e-03  6.8339e-04  2.6077e-04  0:01:36 1660

  iter  continuity  x-velocity  y-velocity      energy           k       omega     time/iter
  2760  2.1805e-03  8.7130e-04  2.9705e-04  2.1302e-03  6.7464e-04  2.6261e-04  0:01:16 1659
  2761  2.1783e-03  8.4153e-04  2.9742e-04  2.1276e-03  6.6589e-04  2.6451e-04  0:01:01 1658
  2762  2.1784e-03  8.0614e-04  2.9577e-04  2.1275e-03  6.5719e-04  2.6626e-04  0:06:20 1657
  2763  2.1817e-03  7.8563e-04  2.9479e-04  2.1306e-03  6.4861e-04  2.6788e-04  0:05:04 1656
  2764  2.1891e-03  7.7331e-04  2.9478e-04  2.1377e-03  6.4007e-04  2.6927e-04  0:04:03 1655
  2765  2.2018e-03  7.7141e-04  2.9686e-04  2.1499e-03  6.3178e-04  2.7052e-04  0:03:14 1654
  2766  2.2190e-03  7.7320e-04  2.9766e-04  2.1665e-03  6.2379e-04  2.7167e-04  0:02:35 1653
  2767  2.2405e-03  7.8105e-04  2.9635e-04  2.1874e-03  6.1623e-04  2.7317e-04  0:02:04 1652
  2768  2.2646e-03  7.7459e-04  2.9577e-04  2.2109e-03  6.0902e-04  2.7443e-04  0:01:39 1651
  2769  2.2935e-03  7.7479e-04  2.9390e-04  2.2391e-03  6.0215e-04  2.7546e-04  0:01:19 1650
  2770  2.3263e-03  7.7896e-04  2.9206e-04  2.2714e-03  5.9581e-04  2.7633e-04  0:01:03 1649

  iter  continuity  x-velocity  y-velocity      energy           k       omega     time/iter
  2771  2.3628e-03  7.8914e-04  2.9152e-04  2.3073e-03  5.9017e-04  2.7693e-04  0:00:51 1648
  2772  2.4007e-03  7.9484e-04  2.9052e-04  2.3447e-03  5.8528e-04  2.7735e-04  0:06:10 1647
  2773  2.4404e-03  7.9216e-04  2.9017e-04  2.3843e-03  5.8097e-04  2.7763e-04  0:04:56 1646
  2774  2.4823e-03  7.8859e-04  2.9303e-04  2.4258e-03  5.7713e-04  2.7785e-04  0:03:57 1645
  2775  2.5256e-03  7.9485e-04  2.9331e-04  2.4688e-03  5.7379e-04  2.7790e-04  0:03:09 1644
  2776  2.5691e-03  8.0240e-04  2.9129e-04  2.5120e-03  5.7073e-04  2.7773e-04  0:02:31 1643
  2777  2.6126e-03  8.1291e-04  2.9002e-04  2.5551e-03  5.6805e-04  2.7755e-04  0:02:01 1642
  2778  2.6562e-03  8.3619e-04  2.8858e-04  2.5983e-03  5.6575e-04  2.7736e-04  0:01:37 1641
  2779  2.6971e-03  8.4285e-04  2.8901e-04  2.6388e-03  5.6368e-04  2.7710e-04  0:01:17 1640
  2780  2.7354e-03  8.5087e-04  2.9183e-04  2.6769e-03  5.6188e-04  2.7673e-04  0:06:30 1639
  2781  2.7698e-03  8.3795e-04  2.9379e-04  2.7112e-03  5.6033e-04  2.7624e-04  0:05:11 1638

  iter  continuity  x-velocity  y-velocity      energy           k       omega     time/iter
  2782  2.8024e-03  8.2668e-04  2.9198e-04  2.7435e-03  5.5904e-04  2.7575e-04  0:04:09 1637
  2783  2.8321e-03  8.1703e-04  2.9099e-04  2.7729e-03  5.5795e-04  2.7518e-04  0:03:19 1636
  2784  2.8597e-03  8.2128e-04  2.9039e-04  2.8002e-03  5.5721e-04  2.7449e-04  0:02:39 1635
  2785  2.8849e-03  8.3278e-04  2.9320e-04  2.8249e-03  5.5678e-04  2.7368e-04  0:02:07 1634
  2786  2.9050e-03  8.3611e-04  2.9300e-04  2.8446e-03  5.5688e-04  2.7271e-04  0:01:42 1633
  2787  2.9229e-03  8.3726e-04  2.8933e-04  2.8621e-03  5.5733e-04  2.7166e-04  0:01:21 1632
  2788  2.9378e-03  8.3815e-04  2.9174e-04  2.8764e-03  5.5803e-04  2.7049e-04  0:06:31 1631
  2789  2.9524e-03  8.5696e-04  2.9584e-04  2.8903e-03  5.5900e-04  2.6908e-04  0:05:13 1630
  2790  2.9603e-03  8.3407e-04  2.9409e-04  2.8974e-03  5.6015e-04  2.6744e-04  0:04:10 1629
  2791  2.9672e-03  8.4262e-04  2.9610e-04  2.9034e-03  5.6151e-04  2.6581e-04  0:03:20 1628
  2792  2.9700e-03  8.5141e-04  2.9968e-04  2.9059e-03  5.6295e-04  2.6431e-04  0:02:40 1627

  iter  continuity  x-velocity  y-velocity      energy           k       omega     time/iter
  2793  2.9650e-03  7.9881e-04  3.0104e-04  2.9008e-03  5.6448e-04  2.6259e-04  0:02:08 1626
  2794  2.9611e-03  7.6627e-04  2.9538e-04  2.8969e-03  5.6610e-04  2.6079e-04  0:01:42 1625
  2795  2.9573e-03  7.6232e-04  2.9259e-04  2.8929e-03  5.6773e-04  2.5920e-04  0:01:22 1624
  2796  2.9534e-03  7.5675e-04  2.9331e-04  2.8885e-03  5.6935e-04  2.5783e-04  0:01:05 1623
  2797  2.9495e-03  7.5297e-04  2.9556e-04  2.8838e-03  5.7091e-04  2.5645e-04  0:06:17 1622
  2798  2.9455e-03  7.5986e-04  2.9772e-04  2.8791e-03  5.7241e-04  2.5509e-04  0:05:01 1621
  2799  2.9395e-03  7.5352e-04  2.9988e-04  2.8727e-03  5.7389e-04  2.5368e-04  0:04:01 1620
  2800  2.9348e-03  7.5809e-04  3.0228e-04  2.8675e-03  5.7519e-04  2.5235e-04  0:03:12 1619
  2801  2.9293e-03  7.5279e-04  3.0689e-04  2.8616e-03  5.7645e-04  2.5109e-04  0:02:34 1618
  2802  2.9227e-03  7.3093e-04  3.0998e-04  2.8546e-03  5.7748e-04  2.4985e-04  0:02:03 1617
  2803  2.9184e-03  7.2713e-04  3.0784e-04  2.8499e-03  5.7857e-04  2.4875e-04  0:01:38 1616

  iter  continuity  x-velocity  y-velocity      energy           k       omega     time/iter
  2804  2.9168e-03  7.4781e-04  3.0786e-04  2.8479e-03  5.7952e-04  2.4784e-04  0:01:19 1615
  2805  2.9164e-03  7.7722e-04  3.0771e-04  2.8471e-03  5.8056e-04  2.4693e-04  0:01:03 1614
  2806  2.9139e-03  7.7580e-04  3.1059e-04  2.8447e-03  5.8141e-04  2.4605e-04  0:06:13 1613
  2807  2.9127e-03  7.6993e-04  3.1713e-04  2.8435e-03  5.8234e-04  2.4514e-04  0:04:58 1612
  2808  2.9119e-03  7.6045e-04  3.2182e-04  2.8426e-03  5.8324e-04  2.4419e-04  0:03:58 1611
  2809  2.9125e-03  7.5663e-04  3.2327e-04  2.8430e-03  5.8408e-04  2.4333e-04  0:03:11 1610
  2810  2.9146e-03  7.6830e-04  3.2335e-04  2.8452e-03  5.8484e-04  2.4262e-04  0:02:32 1609
  2811  2.9177e-03  7.9424e-04  3.2541e-04  2.8487e-03  5.8548e-04  2.4188e-04  0:02:02 1608
  2812  2.9185e-03  7.8826e-04  3.2961e-04  2.8498e-03  5.8600e-04  2.4106e-04  0:01:37 1607
  2813  2.9220e-03  7.9236e-04  3.3422e-04  2.8536e-03  5.8633e-04  2.4049e-04  0:01:18 1606
  2814  2.9251e-03  7.7581e-04  3.3383e-04  2.8567e-03  5.8651e-04  2.3999e-04  0:01:02 1605

  iter  continuity  x-velocity  y-velocity      energy           k       omega     time/iter
  2815  2.9286e-03  7.6478e-04  3.3226e-04  2.8602e-03  5.8647e-04  2.3951e-04  0:00:50 1604
  2816  2.9337e-03  7.8806e-04  3.3515e-04  2.8656e-03  5.8622e-04  2.3901e-04  0:06:00 1603
  2817  2.9370e-03  7.9335e-04  3.3747e-04  2.8692e-03  5.8576e-04  2.3849e-04  0:04:48 1602
  2818  2.9416e-03  8.0257e-04  3.3460e-04  2.8738e-03  5.8515e-04  2.3795e-04  0:03:50 1601
  2819  2.9480e-03  8.1704e-04  3.3855e-04  2.8802e-03  5.8433e-04  2.3730e-04  0:03:04 1600
  2820  2.9510e-03  8.0161e-04  3.3976e-04  2.8828e-03  5.8338e-04  2.3654e-04  0:02:27 1599
  2821  2.9574e-03  8.3753e-04  3.4295e-04  2.8893e-03  5.8230e-04  2.3598e-04  0:01:58 1598
  2822  2.9544e-03  7.9884e-04  3.4172e-04  2.8871e-03  5.8112e-04  2.3540e-04  0:01:34 1597
  2823  2.9513e-03  7.4166e-04  3.3654e-04  2.8848e-03  5.7993e-04  2.3485e-04  0:01:15 1596
  2824  2.9504e-03  7.2343e-04  3.3244e-04  2.8845e-03  5.7865e-04  2.3440e-04  0:01:00 1595
  2825  2.9498e-03  7.1885e-04  3.2804e-04  2.8843e-03  5.7735e-04  2.3409e-04  0:00:48 1594

  iter  continuity  x-velocity  y-velocity      energy           k       omega     time/iter
  2826  2.9491e-03  7.2103e-04  3.2610e-04  2.8838e-03  5.7607e-04  2.3384e-04  0:05:57 1593
  2827  2.9487e-03  7.2344e-04  3.2692e-04  2.8833e-03  5.7482e-04  2.3367e-04  0:04:45 1592
  2828  2.9477e-03  7.2846e-04  3.2784e-04  2.8822e-03  5.7352e-04  2.3349e-04  0:03:48 1591
  2829  2.9451e-03  7.2835e-04  3.2784e-04  2.8800e-03  5.7214e-04  2.3320e-04  0:03:02 1590
  2830  2.9425e-03  7.3255e-04  3.2678e-04  2.8776e-03  5.7067e-04  2.3304e-04  0:02:26 1589
  2831  2.9399e-03  7.4534e-04  3.2893e-04  2.8753e-03  5.6910e-04  2.3302e-04  0:01:57 1588
  2832  2.9371e-03  7.5807e-04  3.2888e-04  2.8726e-03  5.6741e-04  2.3296e-04  0:01:33 1587
  2833  2.9348e-03  7.7459e-04  3.2606e-04  2.8701e-03  5.6563e-04  2.3307e-04  0:01:15 1586
  2834  2.9319e-03  7.8570e-04  3.2341e-04  2.8671e-03  5.6373e-04  2.3327e-04  0:01:00 1585
  2835  2.9281e-03  8.0153e-04  3.2090e-04  2.8631e-03  5.6174e-04  2.3344e-04  0:00:48 1584
  2836  2.9206e-03  7.9103e-04  3.1963e-04  2.8561e-03  5.5953e-04  2.3363e-04  0:05:55 1583

  iter  continuity  x-velocity  y-velocity      energy           k       omega     time/iter
  2837  2.9123e-03  7.7631e-04  3.2164e-04  2.8481e-03  5.5722e-04  2.3373e-04  0:04:44 1582
  2838  2.9038e-03  7.7771e-04  3.2349e-04  2.8398e-03  5.5488e-04  2.3378e-04  0:03:47 1581
  2839  2.8958e-03  7.9079e-04  3.2350e-04  2.8319e-03  5.5250e-04  2.3378e-04  0:03:01 1580
  2840  2.8890e-03  8.2744e-04  3.1983e-04  2.8249e-03  5.5019e-04  2.3371e-04  0:02:25 1579
  2841  2.8789e-03  8.5872e-04  3.1697e-04  2.8152e-03  5.4793e-04  2.3361e-04  0:01:56 1578
  2842  2.8636e-03  8.5127e-04  3.1826e-04  2.8005e-03  5.4570e-04  2.3351e-04  0:01:33 1577
  2843  2.8475e-03  8.3535e-04  3.1927e-04  2.7847e-03  5.4358e-04  2.3329e-04  0:01:14 1576
  2844  2.8302e-03  8.0757e-04  3.1732e-04  2.7673e-03  5.4169e-04  2.3314e-04  0:00:59 1575
  2845  2.8141e-03  8.0755e-04  3.1515e-04  2.7512e-03  5.3990e-04  2.3292e-04  0:00:47 1574
  2846  2.7982e-03  8.2684e-04  3.1561e-04  2.7352e-03  5.3829e-04  2.3254e-04  0:05:52 1573
  2847  2.7773e-03  8.2527e-04  3.1273e-04  2.7145e-03  5.3674e-04  2.3226e-04  0:04:42 1572

  iter  continuity  x-velocity  y-velocity      energy           k       omega     time/iter
  2848  2.7569e-03  8.1180e-04  3.1128e-04  2.6940e-03  5.3530e-04  2.3192e-04  0:03:45 1571
  2849  2.7390e-03  8.2613e-04  3.1183e-04  2.6756e-03  5.3400e-04  2.3147e-04  0:03:00 1570
  2850  2.7187e-03  8.4895e-04  3.1041e-04  2.6548e-03  5.3270e-04  2.3095e-04  0:02:24 1569
  2851  2.6969e-03  8.5969e-04  3.0902e-04  2.6328e-03  5.3144e-04  2.3039e-04  0:01:55 1568
  2852  2.6633e-03  8.0599e-04  3.0359e-04  2.5999e-03  5.3018e-04  2.2976e-04  0:01:32 1567
  2853  2.6332e-03  7.7339e-04  2.9873e-04  2.5704e-03  5.2888e-04  2.2908e-04  0:01:14 1566
  2854  2.6043e-03  7.6494e-04  2.9233e-04  2.5417e-03  5.2753e-04  2.2834e-04  0:00:59 1565
  2855  2.5755e-03  7.5821e-04  2.8886e-04  2.5125e-03  5.2610e-04  2.2758e-04  0:00:47 1564
  2856  2.5478e-03  7.6344e-04  2.8910e-04  2.4843e-03  5.2475e-04  2.2683e-04  0:05:50 1563
  2857  2.5185e-03  7.6749e-04  2.9005e-04  2.4547e-03  5.2338e-04  2.2610e-04  0:04:40 1562
  2858  2.4881e-03  7.6259e-04  2.9076e-04  2.4245e-03  5.2199e-04  2.2526e-04  0:03:44 1561

  iter  continuity  x-velocity  y-velocity      energy           k       omega     time/iter
  2859  2.4595e-03  7.7237e-04  2.9140e-04  2.3958e-03  5.2050e-04  2.2451e-04  0:02:59 1560
  2860  2.4306e-03  7.6959e-04  2.9234e-04  2.3666e-03  5.1893e-04  2.2378e-04  0:02:23 1559
  2861  2.4022e-03  7.6634e-04  2.8528e-04  2.3379e-03  5.1724e-04  2.2298e-04  0:01:54 1558
  2862  2.3749e-03  7.5919e-04  2.8039e-04  2.3101e-03  5.1537e-04  2.2217e-04  0:01:31 1557
  2863  2.3493e-03  7.6665e-04  2.7585e-04  2.2841e-03  5.1342e-04  2.2139e-04  0:01:13 1556
  2864  2.3205e-03  7.5315e-04  2.6986e-04  2.2553e-03  5.1140e-04  2.2056e-04  0:06:09 1555
  2865  2.2958e-03  7.4887e-04  2.6990e-04  2.2309e-03  5.0938e-04  2.1973e-04  0:04:55 1554
  2866  2.2737e-03  7.6302e-04  2.7340e-04  2.2086e-03  5.0731e-04  2.1890e-04  0:03:56 1553
  2867  2.2537e-03  7.8119e-04  2.7476e-04  2.1881e-03  5.0510e-04  2.1806e-04  0:03:09 1552
  2868  2.2350e-03  8.0725e-04  2.7531e-04  2.1692e-03  5.0273e-04  2.1714e-04  0:02:31 1551
  2869  2.2182e-03  8.2257e-04  2.7532e-04  2.1522e-03  5.0026e-04  2.1613e-04  0:02:01 1550

  iter  continuity  x-velocity  y-velocity      energy           k       omega     time/iter
  2870  2.1984e-03  8.3057e-04  2.7601e-04  2.1330e-03  4.9774e-04  2.1523e-04  0:01:36 1549
  2871  2.1800e-03  8.1223e-04  2.7859e-04  2.1145e-03  4.9523e-04  2.1453e-04  0:01:17 1548
  2872  2.1647e-03  8.1001e-04  2.7994e-04  2.0991e-03  4.9272e-04  2.1382e-04  0:01:02 1547
  2873  2.1498e-03  8.1134e-04  2.7895e-04  2.0842e-03  4.9019e-04  2.1302e-04  0:05:59 1546
  2874  2.1382e-03  8.2582e-04  2.7713e-04  2.0731e-03  4.8768e-04  2.1234e-04  0:04:47 1545
  2875  2.1247e-03  8.3677e-04  2.8023e-04  2.0598e-03  4.8507e-04  2.1156e-04  0:03:49 1544
  2876  2.1138e-03  8.2277e-04  2.8345e-04  2.0488e-03  4.8248e-04  2.1061e-04  0:03:03 1543
  2877  2.1059e-03  8.2425e-04  2.8742e-04  2.0407e-03  4.7988e-04  2.0911e-04  0:02:26 1542
  2878  2.1003e-03  8.4564e-04  2.8648e-04  2.0347e-03  4.7727e-04  2.0756e-04  0:01:57 1541
  2879  2.0973e-03  8.5980e-04  2.8603e-04  2.0306e-03  4.7461e-04  2.0656e-04  0:01:34 1540
  2880  2.0895e-03  8.8533e-04  2.8908e-04  2.0226e-03  4.7195e-04  2.0530e-04  0:01:15 1539

  iter  continuity  x-velocity  y-velocity      energy           k       omega     time/iter
  2881  2.0721e-03  8.1371e-04  2.8294e-04  2.0064e-03  4.6933e-04  2.0393e-04  0:01:00 1538
  2882  2.0651e-03  8.0417e-04  2.8050e-04  1.9999e-03  4.6673e-04  2.0259e-04  0:00:48 1537
  2883  2.0575e-03  8.0208e-04  2.7963e-04  1.9928e-03  4.6416e-04  2.0140e-04  0:05:45 1536
  2884  2.0499e-03  7.9801e-04  2.7589e-04  1.9860e-03  4.6170e-04  2.0026e-04  0:04:36 1535
  2885  2.0423e-03  7.9206e-04  2.7122e-04  1.9788e-03  4.5939e-04  1.9913e-04  0:03:41 1534
  2886  2.0332e-03  7.6259e-04  2.6630e-04  1.9698e-03  4.5720e-04  1.9803e-04  0:02:57 1533
  2887  2.0264e-03  7.4099e-04  2.5848e-04  1.9630e-03  4.5513e-04  1.9692e-04  0:02:21 1532
  2888  2.0226e-03  7.3035e-04  2.5844e-04  1.9589e-03  4.5307e-04  1.9590e-04  0:01:53 1531
  2889  2.0185e-03  7.3360e-04  2.6025e-04  1.9547e-03  4.5107e-04  1.9492e-04  0:01:30 1530
  2890  2.0144e-03  7.4161e-04  2.6244e-04  1.9516e-03  4.4920e-04  1.9399e-04  0:01:12 1529
  2891  2.0136e-03  7.4925e-04  2.6828e-04  1.9507e-03  4.4736e-04  1.9307e-04  0:00:58 1528

  iter  continuity  x-velocity  y-velocity      energy           k       omega     time/iter
  2892  2.0132e-03  7.7021e-04  2.7159e-04  1.9502e-03  4.4554e-04  1.9219e-04  0:05:51 1527
  2893  2.0143e-03  7.8583e-04  2.6814e-04  1.9511e-03  4.4386e-04  1.9126e-04  0:04:41 1526
  2894  2.0146e-03  8.1288e-04  2.6624e-04  1.9512e-03  4.4231e-04  1.9038e-04  0:03:45 1525
  2895  2.0091e-03  8.0797e-04  2.6588e-04  1.9462e-03  4.4099e-04  1.8978e-04  0:03:00 1524
  2896  2.0064e-03  7.9819e-04  2.6990e-04  1.9436e-03  4.3978e-04  1.8925e-04  0:02:24 1523
  2897  2.0033e-03  7.9872e-04  2.7439e-04  1.9408e-03  4.3869e-04  1.8869e-04  0:01:55 1522
  2898  2.0006e-03  8.1020e-04  2.7277e-04  1.9384e-03  4.3784e-04  1.8807e-04  0:01:32 1521
  2899  1.9960e-03  8.3152e-04  2.7189e-04  1.9344e-03  4.3726e-04  1.8755e-04  0:01:13 1520
  2900  1.9903e-03  8.1970e-04  2.7346e-04  1.9295e-03  4.3684e-04  1.8696e-04  0:00:59 1519
  2901  1.9888e-03  8.2466e-04  2.7555e-04  1.9281e-03  4.3658e-04  1.8593e-04  0:05:50 1518
  2902  1.9900e-03  8.6612e-04  2.7231e-04  1.9288e-03  4.3637e-04  1.8444e-04  0:04:40 1517

  iter  continuity  x-velocity  y-velocity      energy           k       omega     time/iter
  2903  1.9821e-03  8.4046e-04  2.7356e-04  1.9204e-03  4.3624e-04  1.8359e-04  0:03:44 1516
  2904  1.9870e-03  8.6982e-04  2.7840e-04  1.9238e-03  4.3614e-04  1.8306e-04  0:02:59 1515
  2905  1.9850e-03  8.8734e-04  2.8252e-04  1.9211e-03  4.3618e-04  1.8245e-04  0:02:23 1514
  2906  1.9660e-03  8.0652e-04  2.8058e-04  1.9033e-03  4.3631e-04  1.8178e-04  0:01:54 1513
  2907  1.9550e-03  7.7086e-04  2.7583e-04  1.8938e-03  4.3642e-04  1.8115e-04  0:01:32 1512
  2908  1.9471e-03  7.6206e-04  2.6894e-04  1.8871e-03  4.3651e-04  1.8045e-04  0:01:13 1511
  2909  1.9414e-03  7.6500e-04  2.6369e-04  1.8815e-03  4.3668e-04  1.7979e-04  0:00:58 1510
  2910  1.9345e-03  7.5070e-04  2.5828e-04  1.8745e-03  4.3696e-04  1.7941e-04  0:05:49 1509
  2911  1.9291e-03  7.3280e-04  2.5601e-04  1.8687e-03  4.3725e-04  1.7904e-04  0:04:39 1508
  2912  1.9267e-03  7.3448e-04  2.6042e-04  1.8659e-03  4.3755e-04  1.7866e-04  0:03:43 1507
  2913  1.9219e-03  7.3518e-04  2.6421e-04  1.8614e-03  4.3791e-04  1.7823e-04  0:02:58 1506

  iter  continuity  x-velocity  y-velocity      energy           k       omega     time/iter
  2914  1.9226e-03  7.5410e-04  2.6825e-04  1.8621e-03  4.3840e-04  1.7779e-04  0:02:22 1505
  2915  1.9203e-03  7.5436e-04  2.7083e-04  1.8598e-03  4.3906e-04  1.7745e-04  0:01:54 1504
  2916  1.9192e-03  7.5951e-04  2.6491e-04  1.8587e-03  4.3978e-04  1.7716e-04  0:06:32 1503
  2917  1.9229e-03  7.8462e-04  2.6216e-04  1.8620e-03  4.4045e-04  1.7679e-04  0:05:13 1502
  2918  1.9244e-03  8.0836e-04  2.6116e-04  1.8639e-03  4.4109e-04  1.7631e-04  0:04:10 1501
  2919  1.9269e-03  8.0936e-04  2.6375e-04  1.8669e-03  4.4181e-04  1.7600e-04  0:03:20 1500
  2920  1.9253e-03  7.8462e-04  2.6643e-04  1.8653e-03  4.4258e-04  1.7564e-04  0:02:40 1499
  2921  1.9267e-03  7.8235e-04  2.6429e-04  1.8670e-03  4.4342e-04  1.7534e-04  0:02:08 1498
  2922  1.9322e-03  8.0584e-04  2.6301e-04  1.8732e-03  4.4433e-04  1.7508e-04  0:01:42 1497
  2923  1.9341e-03  8.0658e-04  2.6604e-04  1.8761e-03  4.4531e-04  1.7485e-04  0:01:22 1496
  2924  1.9393e-03  7.9582e-04  2.6717e-04  1.8812e-03  4.4627e-04  1.7462e-04  0:01:05 1495

  iter  continuity  x-velocity  y-velocity      energy           k       omega     time/iter
  2925  1.9469e-03  8.1261e-04  2.6500e-04  1.8889e-03  4.4727e-04  1.7435e-04  0:05:51 1494
  2926  1.9553e-03  8.2931e-04  2.6589e-04  1.8972e-03  4.4827e-04  1.7442e-04  0:04:41 1493
  2927  1.9625e-03  8.2872e-04  2.6708e-04  1.9045e-03  4.4930e-04  1.7434e-04  0:03:44 1492
  2928  1.9724e-03  8.2721e-04  2.6842e-04  1.9142e-03  4.5031e-04  1.7418e-04  0:02:59 1491
  2929  1.9915e-03  8.6649e-04  2.7708e-04  1.9322e-03  4.5135e-04  1.7346e-04  0:02:23 1490
  2930  1.9940e-03  8.4881e-04  2.7629e-04  1.9358e-03  4.5231e-04  1.7288e-04  0:01:55 1489
  2931  1.9933e-03  7.8018e-04  2.6775e-04  1.9374e-03  4.5321e-04  1.7257e-04  0:01:32 1488
  2932  2.0000e-03  7.6280e-04  2.5842e-04  1.9456e-03  4.5405e-04  1.7220e-04  0:01:13 1487
  2933  2.0088e-03  7.5800e-04  2.5170e-04  1.9551e-03  4.5489e-04  1.7198e-04  0:00:59 1486
  2934  2.0178e-03  7.4613e-04  2.4371e-04  1.9644e-03  4.5573e-04  1.7169e-04  0:00:47 1485
  2935  2.0279e-03  7.3553e-04  2.4367e-04  1.9744e-03  4.5660e-04  1.7144e-04  0:05:34 1484

  iter  continuity  x-velocity  y-velocity      energy           k       omega     time/iter
  2936  2.0371e-03  7.3171e-04  2.4451e-04  1.9840e-03  4.5749e-04  1.7128e-04  0:04:27 1483
  2937  2.0475e-03  7.2898e-04  2.4589e-04  1.9954e-03  4.5843e-04  1.7128e-04  0:03:34 1482
  2938  2.0579e-03  7.3036e-04  2.4765e-04  2.0062e-03  4.5943e-04  1.7126e-04  0:02:51 1481
  2939  2.0694e-03  7.4067e-04  2.4905e-04  2.0183e-03  4.6044e-04  1.7121e-04  0:02:17 1480
  2940  2.0839e-03  7.5820e-04  2.4438e-04  2.0326e-03  4.6143e-04  1.7114e-04  0:01:49 1479
  2941  2.0994e-03  7.8192e-04  2.4419e-04  2.0476e-03  4.6236e-04  1.7095e-04  0:01:27 1478
  2942  2.1092e-03  7.8592e-04  2.4139e-04  2.0580e-03  4.6331e-04  1.7075e-04  0:01:10 1477
  2943  2.1209e-03  7.8096e-04  2.4518e-04  2.0702e-03  4.6428e-04  1.7054e-04  0:00:56 1476
  2944  2.1319e-03  7.6733e-04  2.4645e-04  2.0814e-03  4.6520e-04  1.7024e-04  0:05:40 1475
  2945  2.1462e-03  7.8119e-04  2.4719e-04  2.0959e-03  4.6610e-04  1.6982e-04  0:04:31 1474
  2946  2.1603e-03  8.1582e-04  2.4811e-04  2.1103e-03  4.6700e-04  1.6965e-04  0:03:37 1473

  iter  continuity  x-velocity  y-velocity      energy           k       omega     time/iter
  2947  2.1660e-03  8.0864e-04  2.4464e-04  2.1169e-03  4.6789e-04  1.6934e-04  0:02:54 1472
  2948  2.1703e-03  7.7465e-04  2.4116e-04  2.1219e-03  4.6876e-04  1.6896e-04  0:02:19 1471
  2949  2.1774e-03  7.4962e-04  2.4334e-04  2.1297e-03  4.6961e-04  1.6837e-04  0:01:51 1470
  2950  2.1877e-03  7.6552e-04  2.4281e-04  2.1405e-03  4.7044e-04  1.6760e-04  0:01:29 1469
  2951  2.1958e-03  7.8119e-04  2.4456e-04  2.1487e-03  4.7122e-04  1.6709e-04  0:01:11 1468
  2952  2.2009e-03  7.6173e-04  2.4638e-04  2.1541e-03  4.7190e-04  1.6672e-04  0:00:57 1467
  2953  2.2118e-03  7.6718e-04  2.4958e-04  2.1649e-03  4.7251e-04  1.6622e-04  0:00:45 1466
  2954  2.2193e-03  7.7928e-04  2.5252e-04  2.1722e-03  4.7313e-04  1.6586e-04  0:05:29 1465
  2955  2.2307e-03  8.0549e-04  2.4909e-04  2.1833e-03  4.7367e-04  1.6556e-04  0:04:23 1464
  2956  2.2261e-03  7.7408e-04  2.4293e-04  2.1796e-03  4.7410e-04  1.6521e-04  0:03:30 1463
  2957  2.2224e-03  7.0644e-04  2.3771e-04  2.1773e-03  4.7446e-04  1.6491e-04  0:02:48 1462

  iter  continuity  x-velocity  y-velocity      energy           k       omega     time/iter
  2958  2.2229e-03  6.9414e-04  2.2951e-04  2.1789e-03  4.7484e-04  1.6468e-04  0:02:14 1461
  2959  2.2241e-03  6.8458e-04  2.2794e-04  2.1808e-03  4.7523e-04  1.6453e-04  0:01:48 1460
  2960  2.2272e-03  6.8579e-04  2.2874e-04  2.1840e-03  4.7558e-04  1.6433e-04  0:01:26 1459
  2961  2.2277e-03  6.7407e-04  2.2688e-04  2.1848e-03  4.7595e-04  1.6412e-04  0:01:09 1458
  2962  2.2279e-03  6.6395e-04  2.2448e-04  2.1855e-03  4.7626e-04  1.6366e-04  0:00:55 1457
  2963  2.2295e-03  6.7035e-04  2.2326e-04  2.1875e-03  4.7658e-04  1.6317e-04  0:00:44 1456
  2964  2.2301e-03  6.5377e-04  2.2113e-04  2.1882e-03  4.7684e-04  1.6283e-04  0:00:35 1455
  2965  2.2317e-03  6.5059e-04  2.1679e-04  2.1898e-03  4.7704e-04  1.6274e-04  0:05:19 1454
  2966  2.2353e-03  6.5672e-04  2.1737e-04  2.1932e-03  4.7714e-04  1.6249e-04  0:04:15 1453
  2967  2.2403e-03  6.8090e-04  2.1999e-04  2.1982e-03  4.7716e-04  1.6209e-04  0:03:24 1452
  2968  2.2411e-03  6.7450e-04  2.2049e-04  2.1994e-03  4.7713e-04  1.6157e-04  0:02:43 1451

  iter  continuity  x-velocity  y-velocity      energy           k       omega     time/iter
  2969  2.2434e-03  6.6424e-04  2.2079e-04  2.2020e-03  4.7703e-04  1.6125e-04  0:02:10 1450
  2970  2.2446e-03  6.6321e-04  2.2185e-04  2.2034e-03  4.7695e-04  1.6097e-04  0:01:44 1449
  2971  2.2460e-03  6.6972e-04  2.2202e-04  2.2050e-03  4.7684e-04  1.6063e-04  0:01:23 1448
  2972  2.2475e-03  6.7418e-04  2.2039e-04  2.2065e-03  4.7671e-04  1.6020e-04  0:01:07 1447
  2973  2.2490e-03  6.9263e-04  2.1937e-04  2.2083e-03  4.7655e-04  1.5962e-04  0:00:53 1446
  2974  2.2450e-03  6.8232e-04  2.1878e-04  2.2049e-03  4.7638e-04  1.5901e-04  0:00:43 1445
  2975  2.2401e-03  6.5592e-04  2.2019e-04  2.2002e-03  4.7618e-04  1.5826e-04  0:05:23 1444
  2976  2.2359e-03  6.4675e-04  2.2202e-04  2.1962e-03  4.7597e-04  1.5771e-04  0:04:18 1443
  2977  2.2319e-03  6.5149e-04  2.2276e-04  2.1924e-03  4.7574e-04  1.5724e-04  0:03:26 1442
  2978  2.2296e-03  6.8883e-04  2.2422e-04  2.1905e-03  4.7545e-04  1.5672e-04  0:02:45 1441
  2979  2.2198e-03  6.8179e-04  2.2637e-04  2.1809e-03  4.7510e-04  1.5624e-04  0:02:12 1440

  iter  continuity  x-velocity  y-velocity      energy           k       omega     time/iter
  2980  2.2125e-03  6.7509e-04  2.2910e-04  2.1738e-03  4.7473e-04  1.5584e-04  0:01:45 1439
  2981  2.2064e-03  6.7512e-04  2.3226e-04  2.1675e-03  4.7426e-04  1.5547e-04  0:01:24 1438
  2982  2.1999e-03  6.9465e-04  2.3106e-04  2.1606e-03  4.7374e-04  1.5512e-04  0:01:07 1437
  2983  2.1980e-03  7.3155e-04  2.3367e-04  2.1583e-03  4.7315e-04  1.5479e-04  0:00:54 1436
  2984  2.1818e-03  7.2785e-04  2.3149e-04  2.1426e-03  4.7252e-04  1.5451e-04  0:05:30 1435
  2985  2.1627e-03  6.4351e-04  2.2242e-04  2.1248e-03  4.7182e-04  1.5422e-04  0:04:24 1434
  2986  2.1482e-03  6.1749e-04  2.1781e-04  2.1114e-03  4.7113e-04  1.5401e-04  0:03:31 1433
  2987  2.1368e-03  6.0904e-04  2.1715e-04  2.1005e-03  4.7043e-04  1.5382e-04  0:02:49 1432
  2988  2.1255e-03  6.1188e-04  2.1510e-04  2.0895e-03  4.6977e-04  1.5361e-04  0:02:15 1431
  2989  2.1111e-03  6.0206e-04  2.1321e-04  2.0758e-03  4.6912e-04  1.5333e-04  0:01:48 1430
  2990  2.0987e-03  5.9504e-04  2.0785e-04  2.0638e-03  4.6847e-04  1.5299e-04  0:01:26 1429

  iter  continuity  x-velocity  y-velocity      energy           k       omega     time/iter
  2991  2.0867e-03  5.9219e-04  2.0596e-04  2.0519e-03  4.6778e-04  1.5261e-04  0:01:09 1428
  2992  2.0743e-03  5.8113e-04  2.0592e-04  2.0393e-03  4.6716e-04  1.5213e-04  0:00:55 1427
  2993  2.0619e-03  5.7614e-04  2.0239e-04  2.0269e-03  4.6656e-04  1.5160e-04  0:00:44 1426
  2994  2.0515e-03  5.8827e-04  2.0085e-04  2.0163e-03  4.6597e-04  1.5112e-04  0:05:20 1425
  2995  2.0414e-03  6.0793e-04  1.9900e-04  2.0059e-03  4.6531e-04  1.5072e-04  0:04:16 1424
  2996  2.0292e-03  6.0305e-04  1.9753e-04  1.9936e-03  4.6456e-04  1.5035e-04  0:03:25 1423
  2997  2.0147e-03  5.8825e-04  1.9931e-04  1.9795e-03  4.6374e-04  1.4987e-04  0:02:44 1422
  2998  2.0054e-03  6.2103e-04  2.0151e-04  1.9701e-03  4.6291e-04  1.4947e-04  0:02:11 1421
  2999  1.9938e-03  6.4879e-04  2.0638e-04  1.9584e-03  4.6202e-04  1.4898e-04  0:01:45 1420
  3000  1.9760e-03  6.3454e-04  2.0367e-04  1.9409e-03  4.6112e-04  1.4825e-04  0:01:24 1419
  3001  1.9567e-03  6.0967e-04  1.9927e-04  1.9220e-03  4.6020e-04  1.4751e-04  0:01:07 1418

  iter  continuity  x-velocity  y-velocity      energy           k       omega     time/iter
  3002  1.9403e-03  6.0694e-04  1.9557e-04  1.9058e-03  4.5929e-04  1.4648e-04  0:00:53 1417
  3003  1.9214e-03  6.0732e-04  1.9308e-04  1.8871e-03  4.5847e-04  1.4544e-04  0:05:26 1416
  3004  1.9020e-03  6.0283e-04  1.9305e-04  1.8684e-03  4.5772e-04  1.4448e-04  0:04:21 1415
  3005  1.8819e-03  5.9413e-04  1.9518e-04  1.8485e-03  4.5704e-04  1.4380e-04  0:03:28 1414
  3006  1.8593e-03  5.6921e-04  1.9673e-04  1.8259e-03  4.5632e-04  1.4313e-04  0:02:47 1413
  3007  1.8382e-03  5.6352e-04  1.9475e-04  1.8050e-03  4.5557e-04  1.4241e-04  0:02:13 1412
  3008  1.8189e-03  5.8768e-04  1.9534e-04  1.7859e-03  4.5481e-04  1.4174e-04  0:01:46 1411
  3009  1.7973e-03  6.0446e-04  1.9610e-04  1.7646e-03  4.5398e-04  1.4123e-04  0:01:25 1410
  3010  1.7743e-03  5.9462e-04  1.9731e-04  1.7417e-03  4.5316e-04  1.4070e-04  0:01:08 1409
  3011  1.7534e-03  5.8305e-04  2.0176e-04  1.7207e-03  4.5236e-04  1.4029e-04  0:00:54 1408
  3012  1.7354e-03  5.7575e-04  2.0492e-04  1.7023e-03  4.5158e-04  1.3990e-04  0:00:43 1407

  iter  continuity  x-velocity  y-velocity      energy           k       omega     time/iter
  3013  1.7209e-03  5.9899e-04  2.0697e-04  1.6871e-03  4.5087e-04  1.3951e-04  0:05:16 1406
  3014  1.7038e-03  6.1078e-04  2.0642e-04  1.6695e-03  4.5019e-04  1.3906e-04  0:04:13 1405
  3015  1.6930e-03  6.6760e-04  2.0520e-04  1.6584e-03  4.4950e-04  1.3856e-04  0:03:22 1404
  3016  1.6627e-03  6.0478e-04  2.0186e-04  1.6295e-03  4.4883e-04  1.3803e-04  0:02:41 1403
  3017  1.6424e-03  5.5728e-04  1.9942e-04  1.6100e-03  4.4820e-04  1.3745e-04  0:02:09 1402
  3018  1.6253e-03  5.3987e-04  1.9526e-04  1.5935e-03  4.4753e-04  1.3684e-04  0:01:43 1401
  3019  1.6102e-03  5.4045e-04  1.9128e-04  1.5787e-03  4.4680e-04  1.3616e-04  0:01:22 1400
  3020  1.5959e-03  5.4840e-04  1.8893e-04  1.5645e-03  4.4607e-04  1.3549e-04  0:01:06 1399
  3021  1.5818e-03  5.4939e-04  1.8631e-04  1.5505e-03  4.4530e-04  1.3479e-04  0:00:53 1398
  3022  1.5688e-03  5.5440e-04  1.8395e-04  1.5373e-03  4.4451e-04  1.3410e-04  0:00:42 1397
  3023  1.5552e-03  5.5165e-04  1.8282e-04  1.5237e-03  4.4367e-04  1.3336e-04  0:05:13 1396

  iter  continuity  x-velocity  y-velocity      energy           k       omega     time/iter
  3024  1.5410e-03  5.2356e-04  1.8034e-04  1.5093e-03  4.4274e-04  1.3263e-04  0:04:10 1395
  3025  1.5286e-03  5.0903e-04  1.7990e-04  1.4965e-03  4.4172e-04  1.3192e-04  0:03:20 1394
  3026  1.5168e-03  5.0094e-04  1.7980e-04  1.4844e-03  4.4064e-04  1.3121e-04  0:02:40 1393
  3027  1.5057e-03  4.9714e-04  1.7759e-04  1.4731e-03  4.3948e-04  1.3049e-04  0:02:08 1392
  3028  1.4932e-03  4.9677e-04  1.7535e-04  1.4607e-03  4.3824e-04  1.2982e-04  0:01:42 1391
  3029  1.4808e-03  5.0306e-04  1.7575e-04  1.4488e-03  4.3695e-04  1.2922e-04  0:01:22 1390
  3030  1.4698e-03  5.0534e-04  1.7853e-04  1.4379e-03  4.3563e-04  1.2857e-04  0:01:05 1389
  3031  1.4591e-03  5.0529e-04  1.8044e-04  1.4272e-03  4.3424e-04  1.2786e-04  0:00:52 1388
  3032  1.4483e-03  4.9236e-04  1.7696e-04  1.4161e-03  4.3278e-04  1.2721e-04  0:00:42 1387
  3033  1.4398e-03  4.8768e-04  1.7459e-04  1.4072e-03  4.3132e-04  1.2655e-04  0:05:11 1386
  3034  1.4330e-03  4.9701e-04  1.7625e-04  1.3999e-03  4.2985e-04  1.2593e-04  0:04:08 1385

  iter  continuity  x-velocity  y-velocity      energy           k       omega     time/iter
  3035  1.4275e-03  5.1540e-04  1.7742e-04  1.3939e-03  4.2841e-04  1.2533e-04  0:03:18 1384
  3036  1.4163e-03  5.0758e-04  1.7692e-04  1.3830e-03  4.2696e-04  1.2480e-04  0:02:39 1383
  3037  1.4090e-03  5.0108e-04  1.7710e-04  1.3764e-03  4.2552e-04  1.2432e-04  0:02:07 1382
  3038  1.4040e-03  5.0689e-04  1.8088e-04  1.3718e-03  4.2409e-04  1.2385e-04  0:01:41 1381
  3039  1.3991e-03  5.0193e-04  1.8371e-04  1.3671e-03  4.2266e-04  1.2334e-04  0:01:21 1380
  3040  1.3954e-03  4.9423e-04  1.8514e-04  1.3637e-03  4.2125e-04  1.2286e-04  0:01:05 1379
  3041  1.3950e-03  5.0328e-04  1.8417e-04  1.3637e-03  4.1984e-04  1.2239e-04  0:00:52 1378
  3042  1.3965e-03  5.2085e-04  1.8420e-04  1.3653e-03  4.1840e-04  1.2185e-04  0:05:17 1377
  3043  1.3980e-03  5.3869e-04  1.8111e-04  1.3670e-03  4.1694e-04  1.2136e-04  0:04:13 1376
  3044  1.4024e-03  5.5618e-04  1.7883e-04  1.3716e-03  4.1545e-04  1.2093e-04  0:03:22 1375
  3045  1.4070e-03  5.6308e-04  1.8047e-04  1.3763e-03  4.1395e-04  1.2048e-04  0:02:42 1374

  iter  continuity  x-velocity  y-velocity      energy           k       omega     time/iter
  3046  1.4118e-03  5.5430e-04  1.8376e-04  1.3811e-03  4.1251e-04  1.2006e-04  0:02:09 1373
  3047  1.4183e-03  5.3901e-04  1.8681e-04  1.3875e-03  4.1110e-04  1.1964e-04  0:01:43 1372
  3048  1.4286e-03  5.5076e-04  1.8648e-04  1.3976e-03  4.0971e-04  1.1929e-04  0:01:23 1371
  3049  1.4358e-03  5.4403e-04  1.8401e-04  1.4050e-03  4.0835e-04  1.1897e-04  0:01:06 1370
  3050  1.4527e-03  5.7330e-04  1.8692e-04  1.4214e-03  4.0704e-04  1.1863e-04  0:05:27 1369
  3051  1.4691e-03  6.2122e-04  1.9010e-04  1.4376e-03  4.0591e-04  1.1840e-04  0:04:21 1368
  3052  1.4690e-03  5.6306e-04  1.9167e-04  1.4385e-03  4.0491e-04  1.1817e-04  0:03:29 1367
  3053  1.4759e-03  5.1040e-04  1.8701e-04  1.4463e-03  4.0406e-04  1.1793e-04  0:02:47 1366
  3054  1.4861e-03  4.8922e-04  1.8551e-04  1.4572e-03  4.0357e-04  1.1767e-04  0:02:13 1365
  3055  1.4982e-03  4.8073e-04  1.8661e-04  1.4697e-03  4.0340e-04  1.1745e-04  0:01:47 1364
  3056  1.5133e-03  4.8839e-04  1.8785e-04  1.4847e-03  4.0353e-04  1.1725e-04  0:01:25 1363

  iter  continuity  x-velocity  y-velocity      energy           k       omega     time/iter
  3057  1.5295e-03  5.1963e-04  1.8856e-04  1.5010e-03  4.0401e-04  1.1709e-04  0:01:08 1362
  3058  1.5417e-03  5.1177e-04  1.8547e-04  1.5133e-03  4.0473e-04  1.1685e-04  0:00:54 1361
  3059  1.5541e-03  4.9271e-04  1.8243e-04  1.5260e-03  4.0548e-04  1.1675e-04  0:00:44 1360
  3060  1.5661e-03  4.7431e-04  1.8236e-04  1.5383e-03  4.0624e-04  1.1654e-04  0:05:07 1359
  3061  1.5804e-03  4.5750e-04  1.8325e-04  1.5527e-03  4.0700e-04  1.1630e-04  0:04:05 1358
  3062  1.5957e-03  4.5384e-04  1.8362e-04  1.5680e-03  4.0779e-04  1.1619e-04  0:03:16 1357
  3063  1.6112e-03  4.5257e-04  1.8461e-04  1.5836e-03  4.0862e-04  1.1620e-04  0:02:37 1356
  3064  1.6258e-03  4.4554e-04  1.8309e-04  1.5985e-03  4.0942e-04  1.1620e-04  0:02:05 1355
  3065  1.6418e-03  4.4203e-04  1.8215e-04  1.6147e-03  4.1021e-04  1.1625e-04  0:01:40 1354
  3066  1.6580e-03  4.3795e-04  1.8146e-04  1.6311e-03  4.1096e-04  1.1629e-04  0:01:20 1353
  3067  1.6746e-03  4.3674e-04  1.8069e-04  1.6477e-03  4.1167e-04  1.1635e-04  0:01:04 1352

  iter  continuity  x-velocity  y-velocity      energy           k       omega     time/iter
  3068  1.6914e-03  4.3481e-04  1.7809e-04  1.6645e-03  4.1233e-04  1.1642e-04  0:00:51 1351
  3069  1.7088e-03  4.3946e-04  1.7607e-04  1.6817e-03  4.1295e-04  1.1646e-04  0:05:11 1350
  3070  1.7252e-03  4.3524e-04  1.7700e-04  1.6979e-03  4.1355e-04  1.1648e-04  0:04:09 1349
  3071  1.7418e-03  4.4585e-04  1.7824e-04  1.7142e-03  4.1418e-04  1.1647e-04  0:03:19 1348
  3072  1.7580e-03  4.6068e-04  1.7827e-04  1.7302e-03  4.1478e-04  1.1648e-04  0:02:39 1347
  3073  1.7697e-03  4.4339e-04  1.7694e-04  1.7422e-03  4.1534e-04  1.1643e-04  0:02:07 1346
  3074  1.7823e-03  4.4120e-04  1.7652e-04  1.7550e-03  4.1587e-04  1.1628e-04  0:01:41 1345
  3075  1.7949e-03  4.4925e-04  1.7820e-04  1.7678e-03  4.1636e-04  1.1609e-04  0:01:21 1344
  3076  1.8074e-03  4.6627e-04  1.8080e-04  1.7804e-03  4.1679e-04  1.1590e-04  0:01:05 1343
  3077  1.8178e-03  4.7481e-04  1.8007e-04  1.7908e-03  4.1713e-04  1.1572e-04  0:00:52 1342
  3078  1.8266e-03  4.7698e-04  1.7896e-04  1.7997e-03  4.1739e-04  1.1556e-04  0:00:41 1341

  iter  continuity  x-velocity  y-velocity      energy           k       omega     time/iter
  3079  1.8358e-03  4.9225e-04  1.7813e-04  1.8090e-03  4.1754e-04  1.1533e-04  0:05:01 1340
  3080  1.8450e-03  5.1458e-04  1.7727e-04  1.8181e-03  4.1762e-04  1.1526e-04  0:04:01 1339
  3081  1.8502e-03  5.2559e-04  1.7584e-04  1.8236e-03  4.1766e-04  1.1533e-04  0:03:12 1338
  3082  1.8557e-03  5.3319e-04  1.7635e-04  1.8295e-03  4.1764e-04  1.1540e-04  0:02:34 1337
  3083  1.8612e-03  5.4512e-04  1.7959e-04  1.8351e-03  4.1758e-04  1.1545e-04  0:02:03 1336
  3084  1.8630e-03  5.2838e-04  1.8215e-04  1.8370e-03  4.1748e-04  1.1547e-04  0:01:38 1335
  3085  1.8655e-03  5.3274e-04  1.8242e-04  1.8395e-03  4.1733e-04  1.1546e-04  0:01:19 1334
  3086  1.8682e-03  5.5023e-04  1.8219e-04  1.8423e-03  4.1716e-04  1.1557e-04  0:01:03 1333
  3087  1.8708e-03  5.7910e-04  1.8007e-04  1.8448e-03  4.1696e-04  1.1561e-04  0:00:50 1332
  3088  1.8703e-03  5.9642e-04  1.7795e-04  1.8443e-03  4.1671e-04  1.1556e-04  0:05:06 1331
  3089  1.8690e-03  5.9445e-04  1.7980e-04  1.8430e-03  4.1641e-04  1.1566e-04  0:04:05 1330

  iter  continuity  x-velocity  y-velocity      energy           k       omega     time/iter
  3090  1.8672e-03  5.9264e-04  1.8395e-04  1.8411e-03  4.1608e-04  1.1582e-04  0:03:16 1329
  3091  1.8683e-03  6.2256e-04  1.8549e-04  1.8416e-03  4.1569e-04  1.1594e-04  0:02:36 1328
  3092  1.8686e-03  6.7162e-04  1.8600e-04  1.8416e-03  4.1522e-04  1.1600e-04  0:02:05 1327
  3093  1.8586e-03  6.4692e-04  1.8541e-04  1.8322e-03  4.1467e-04  1.1601e-04  0:01:40 1326
  3094  1.8463e-03  6.0764e-04  1.8154e-04  1.8208e-03  4.1413e-04  1.1599e-04  0:01:20 1325
  3095  1.8392e-03  6.0323e-04  1.7681e-04  1.8140e-03  4.1358e-04  1.1593e-04  0:01:04 1324
  3096  1.8316e-03  5.9817e-04  1.7492e-04  1.8066e-03  4.1294e-04  1.1576e-04  0:00:51 1323
  3097  1.8241e-03  6.0025e-04  1.7579e-04  1.7992e-03  4.1227e-04  1.1561e-04  0:00:41 1322
  3098  1.8170e-03  6.1023e-04  1.7681e-04  1.7921e-03  4.1151e-04  1.1558e-04  0:04:57 1321
  3099  1.8094e-03  6.0817e-04  1.7778e-04  1.7844e-03  4.1066e-04  1.1555e-04  0:03:57 1320
  3100  1.7997e-03  5.7996e-04  1.7886e-04  1.7746e-03  4.0973e-04  1.1547e-04  0:03:10 1319

  iter  continuity  x-velocity  y-velocity      energy           k       omega     time/iter
  3101  1.7909e-03  5.6441e-04  1.7937e-04  1.7658e-03  4.0870e-04  1.1540e-04  0:02:32 1318
  3102  1.7822e-03  5.5791e-04  1.7824e-04  1.7570e-03  4.0758e-04  1.1534e-04  0:02:01 1317
  3103  1.7725e-03  5.4227e-04  1.7841e-04  1.7475e-03  4.0638e-04  1.1522e-04  0:01:37 1316
  3104  1.7633e-03  5.2871e-04  1.7754e-04  1.7384e-03  4.0508e-04  1.1506e-04  0:01:17 1315
  3105  1.7549e-03  5.2480e-04  1.7634e-04  1.7302e-03  4.0371e-04  1.1492e-04  0:01:02 1314
  3106  1.7478e-03  5.2884e-04  1.7614e-04  1.7230e-03  4.0222e-04  1.1484e-04  0:00:50 1313
  3107  1.7405e-03  5.2556e-04  1.7319e-04  1.7157e-03  4.0062e-04  1.1475e-04  0:00:40 1312
  3108  1.7348e-03  5.3810e-04  1.6973e-04  1.7099e-03  3.9896e-04  1.1464e-04  0:04:54 1311
  3109  1.7293e-03  5.4068e-04  1.6815e-04  1.7043e-03  3.9727e-04  1.1453e-04  0:03:55 1310
  3110  1.7236e-03  5.2870e-04  1.6853e-04  1.6984e-03  3.9555e-04  1.1446e-04  0:03:08 1309
  3111  1.7189e-03  5.1734e-04  1.6943e-04  1.6935e-03  3.9379e-04  1.1439e-04  0:02:30 1308

  iter  continuity  x-velocity  y-velocity      energy           k       omega     time/iter
  3112  1.7162e-03  5.2294e-04  1.6918e-04  1.6906e-03  3.9197e-04  1.1429e-04  0:02:00 1307
  3113  1.7147e-03  5.3053e-04  1.6832e-04  1.6889e-03  3.9012e-04  1.1416e-04  0:01:36 1306
  3114  1.7113e-03  5.2353e-04  1.6751e-04  1.6857e-03  3.8822e-04  1.1386e-04  0:01:17 1305
  3115  1.7118e-03  5.2796e-04  1.6749e-04  1.6864e-03  3.8627e-04  1.1383e-04  0:01:01 1304
  3116  1.7139e-03  5.2545e-04  1.6895e-04  1.6887e-03  3.8426e-04  1.1377e-04  0:00:49 1303
  3117  1.7182e-03  5.2885e-04  1.6928e-04  1.6930e-03  3.8218e-04  1.1363e-04  0:00:39 1302
  3118  1.7241e-03  5.2825e-04  1.6820e-04  1.6988e-03  3.8003e-04  1.1341e-04  0:04:52 1301
  3119  1.7313e-03  5.2342e-04  1.6867e-04  1.7059e-03  3.7782e-04  1.1316e-04  0:03:53 1300
  3120  1.7405e-03  5.1506e-04  1.6929e-04  1.7148e-03  3.7552e-04  1.1289e-04  0:03:06 1299
  3121  1.7524e-03  5.2506e-04  1.6864e-04  1.7265e-03  3.7314e-04  1.1251e-04  0:02:29 1298
  3122  1.7646e-03  5.3468e-04  1.6703e-04  1.7386e-03  3.7070e-04  1.1213e-04  0:01:59 1297

  iter  continuity  x-velocity  y-velocity      energy           k       omega     time/iter
[...]
  3701  1.2419e-03  2.0650e-04  8.5856e-05  1.2182e-03  1.2925e-04  7.9254e-05  0:02:46  718
  3702  1.2469e-03  2.0683e-04  8.6470e-05  1.2232e-03  1.3030e-04  7.9443e-05  0:02:12  717
  3703  1.2520e-03  2.0897e-04  8.6541e-05  1.2282e-03  1.3138e-04  7.9617e-05  0:01:46  716
  3704  1.2574e-03  2.1331e-04  8.6833e-05  1.2336e-03  1.3246e-04  7.9768e-05  0:01:25  715
  3705  1.2631e-03  2.2034e-04  8.7326e-05  1.2392e-03  1.3353e-04  7.9882e-05  0:01:08  714

  iter  continuity  x-velocity  y-velocity      energy           k       omega     time/iter
  3706  1.2688e-03  2.2441e-04  8.7877e-05  1.2448e-03  1.3460e-04  7.9976e-05  0:00:54  713
  3707  1.2745e-03  2.2913e-04  8.8458e-05  1.2505e-03  1.3568e-04  8.0072e-05  0:00:43  712
  3708  1.2807e-03  2.3744e-04  8.9370e-05  1.2566e-03  1.3676e-04  8.0178e-05  0:00:34  711
  3709  1.2870e-03  2.5376e-04  9.0200e-05  1.2629e-03  1.3786e-04  8.0291e-05  0:00:28  710
  3710  1.2932e-03  2.6973e-04  9.0404e-05  1.2690e-03  1.3893e-04  8.0379e-05  0:02:44  709
  3711  1.2983e-03  2.6755e-04  8.9785e-05  1.2740e-03  1.3999e-04  8.0444e-05  0:02:11  708
  3712  1.3033e-03  2.6186e-04  8.9429e-05  1.2790e-03  1.4103e-04  8.0472e-05  0:01:45  707
  3713  1.3080e-03  2.5014e-04  8.9095e-05  1.2837e-03  1.4210e-04  8.0455e-05  0:01:23  706
  3714  1.3130e-03  2.4195e-04  8.8752e-05  1.2886e-03  1.4316e-04  8.0397e-05  0:01:07  705
  3715  1.3180e-03  2.3815e-04  8.8607e-05  1.2937e-03  1.4421e-04  8.0296e-05  0:00:53  704
  3716  1.3232e-03  2.3776e-04  8.8667e-05  1.2988e-03  1.4529e-04  8.0193e-05  0:00:43  703

  iter  continuity  x-velocity  y-velocity      energy           k       omega     time/iter
  3717  1.3282e-03  2.3872e-04  8.8664e-05  1.3038e-03  1.4636e-04  8.0090e-05  0:00:34  702
  3718  1.3332e-03  2.4225e-04  8.8781e-05  1.3088e-03  1.4743e-04  8.0003e-05  0:00:27  701
  3719  1.3379e-03  2.4270e-04  8.8958e-05  1.3135e-03  1.4851e-04  7.9900e-05  0:02:42  700
  3720  1.3427e-03  2.4476e-04  8.9299e-05  1.3182e-03  1.4957e-04  7.9781e-05  0:02:09  699
  3721  1.3473e-03  2.4446e-04  8.9512e-05  1.3228e-03  1.5062e-04  7.9665e-05  0:01:43  698
  3722  1.3520e-03  2.4559e-04  8.9669e-05  1.3274e-03  1.5165e-04  7.9552e-05  0:01:22  697
  3723  1.3565e-03  2.4684e-04  9.0105e-05  1.3319e-03  1.5264e-04  7.9430e-05  0:01:06  696
  3724  1.3610e-03  2.4529e-04  9.0643e-05  1.3363e-03  1.5363e-04  7.9308e-05  0:00:53  695
  3725  1.3654e-03  2.4613e-04  9.1377e-05  1.3407e-03  1.5461e-04  7.9205e-05  0:00:42  694
  3726  1.3699e-03  2.5029e-04  9.1903e-05  1.3451e-03  1.5559e-04  7.9107e-05  0:00:34  693
  3727  1.3742e-03  2.5295e-04  9.1910e-05  1.3494e-03  1.5655e-04  7.9018e-05  0:00:27  692

  iter  continuity  x-velocity  y-velocity      energy           k       omega     time/iter
  3728  1.3784e-03  2.5644e-04  9.1941e-05  1.3536e-03  1.5749e-04  7.8936e-05  0:00:21  691
  3729  1.3824e-03  2.5713e-04  9.2029e-05  1.3575e-03  1.5839e-04  7.8849e-05  0:02:35  690
  3730  1.3862e-03  2.5774e-04  9.2194e-05  1.3612e-03  1.5928e-04  7.8763e-05  0:02:04  689
  3731  1.3897e-03  2.5603e-04  9.2406e-05  1.3647e-03  1.6013e-04  7.8674e-05  0:01:39  688
  3732  1.3933e-03  2.5736e-04  9.2673e-05  1.3682e-03  1.6095e-04  7.8594e-05  0:01:19  687
  3733  1.3965e-03  2.6030e-04  9.2941e-05  1.3714e-03  1.6176e-04  7.8495e-05  0:01:03  686
  3734  1.3994e-03  2.6125e-04  9.3123e-05  1.3743e-03  1.6255e-04  7.8400e-05  0:00:50  685
  3735  1.4021e-03  2.5874e-04  9.3405e-05  1.3769e-03  1.6331e-04  7.8300e-05  0:00:40  684
  3736  1.4045e-03  2.5797e-04  9.3794e-05  1.3792e-03  1.6405e-04  7.8201e-05  0:00:32  683
  3737  1.4066e-03  2.5787e-04  9.4016e-05  1.3813e-03  1.6475e-04  7.8112e-05  0:00:26  682
  3738  1.4086e-03  2.6067e-04  9.4712e-05  1.3833e-03  1.6543e-04  7.8018e-05  0:02:37  681

  iter  continuity  x-velocity  y-velocity      energy           k       omega     time/iter
  3739  1.4104e-03  2.6506e-04  9.5500e-05  1.3850e-03  1.6610e-04  7.7930e-05  0:02:05  680
  3740  1.4117e-03  2.6626e-04  9.6105e-05  1.3863e-03  1.6673e-04  7.7836e-05  0:01:40  679
  3741  1.4128e-03  2.6662e-04  9.6573e-05  1.3873e-03  1.6732e-04  7.7739e-05  0:01:20  678
  3742  1.4137e-03  2.6816e-04  9.6980e-05  1.3882e-03  1.6789e-04  7.7654e-05  0:01:04  677
  3743  1.4146e-03  2.7523e-04  9.7299e-05  1.3892e-03  1.6842e-04  7.7574e-05  0:00:51  676
  3744  1.4155e-03  2.8277e-04  9.7507e-05  1.3900e-03  1.6893e-04  7.7499e-05  0:00:41  675
  3745  1.4161e-03  2.8485e-04  9.7650e-05  1.3906e-03  1.6940e-04  7.7441e-05  0:00:33  674
  3746  1.4163e-03  2.8090e-04  9.7895e-05  1.3908e-03  1.6986e-04  7.7401e-05  0:00:26  673
  3747  1.4165e-03  2.7506e-04  9.8118e-05  1.3909e-03  1.7029e-04  7.7362e-05  0:02:35  672
  3748  1.4167e-03  2.6973e-04  9.8437e-05  1.3910e-03  1.7069e-04  7.7336e-05  0:02:04  671
  3749  1.4169e-03  2.6478e-04  9.8851e-05  1.3911e-03  1.7107e-04  7.7326e-05  0:01:39  670

  iter  continuity  x-velocity  y-velocity      energy           k       omega     time/iter
  3750  1.4172e-03  2.6126e-04  9.9319e-05  1.3913e-03  1.7141e-04  7.7322e-05  0:01:19  669
  3751  1.4176e-03  2.6136e-04  9.9860e-05  1.3915e-03  1.7173e-04  7.7319e-05  0:01:03  668
  3752  1.4180e-03  2.6512e-04  1.0057e-04  1.3919e-03  1.7204e-04  7.7337e-05  0:00:50  667
  3753  1.4185e-03  2.6869e-04  1.0149e-04  1.3922e-03  1.7234e-04  7.7351e-05  0:00:40  666
  3754  1.4190e-03  2.7491e-04  1.0270e-04  1.3926e-03  1.7265e-04  7.7371e-05  0:00:32  665
  3755  1.4193e-03  2.8064e-04  1.0412e-04  1.3927e-03  1.7293e-04  7.7379e-05  0:00:26  664
  3756  1.4194e-03  2.8374e-04  1.0512e-04  1.3927e-03  1.7318e-04  7.7371e-05  0:00:21  663
  3757  1.4192e-03  2.8739e-04  1.0511e-04  1.3925e-03  1.7341e-04  7.7354e-05  0:00:16  662
  3758  1.4190e-03  2.9000e-04  1.0496e-04  1.3921e-03  1.7364e-04  7.7345e-05  0:02:25  661
  3759  1.4186e-03  2.9110e-04  1.0551e-04  1.3916e-03  1.7386e-04  7.7346e-05  0:01:56  660
  3760  1.4182e-03  2.9523e-04  1.0559e-04  1.3912e-03  1.7407e-04  7.7338e-05  0:01:33  659

  iter  continuity  x-velocity  y-velocity      energy           k       omega     time/iter
  3761  1.4177e-03  2.9799e-04  1.0570e-04  1.3905e-03  1.7427e-04  7.7323e-05  0:01:14  658
  3762  1.4173e-03  3.0147e-04  1.0633e-04  1.3900e-03  1.7447e-04  7.7336e-05  0:00:59  657
  3763  1.4164e-03  3.0108e-04  1.0708e-04  1.3891e-03  1.7468e-04  7.7380e-05  0:00:47  656
  3764  1.4154e-03  3.0042e-04  1.0695e-04  1.3880e-03  1.7487e-04  7.7419e-05  0:00:38  655
  3765  1.4150e-03  3.0668e-04  1.0724e-04  1.3875e-03  1.7508e-04  7.7483e-05  0:00:30  654
  3766  1.4142e-03  3.0037e-04  1.0809e-04  1.3867e-03  1.7527e-04  7.7541e-05  0:00:24  653
  3767  1.4134e-03  3.0108e-04  1.0926e-04  1.3858e-03  1.7546e-04  7.7607e-05  0:02:30  652
  3768  1.4125e-03  2.9851e-04  1.1004e-04  1.3848e-03  1.7564e-04  7.7667e-05  0:02:00  651
  3769  1.4118e-03  2.9600e-04  1.1006e-04  1.3840e-03  1.7581e-04  7.7705e-05  0:01:35  650
  3770  1.4109e-03  2.8767e-04  1.1028e-04  1.3831e-03  1.7597e-04  7.7739e-05  0:01:16  649
  3771  1.4105e-03  2.8537e-04  1.1082e-04  1.3827e-03  1.7611e-04  7.7774e-05  0:01:01  648

  iter  continuity  x-velocity  y-velocity      energy           k       omega     time/iter
  3772  1.4109e-03  2.9558e-04  1.1143e-04  1.3829e-03  1.7624e-04  7.7794e-05  0:00:49  647
  3773  1.4115e-03  3.1287e-04  1.1259e-04  1.3835e-03  1.7636e-04  7.7811e-05  0:00:39  646
  3774  1.4116e-03  3.2254e-04  1.1272e-04  1.3835e-03  1.7646e-04  7.7816e-05  0:00:31  645
  3775  1.4121e-03  3.3823e-04  1.1317e-04  1.3839e-03  1.7658e-04  7.7821e-05  0:00:25  644
  3776  1.4130e-03  3.5892e-04  1.1357e-04  1.3847e-03  1.7667e-04  7.7826e-05  0:00:20  643
  3777  1.4129e-03  3.6815e-04  1.1414e-04  1.3845e-03  1.7676e-04  7.7838e-05  0:02:24  642
  3778  1.4125e-03  3.6971e-04  1.1398e-04  1.3840e-03  1.7687e-04  7.7870e-05  0:01:55  641
  3779  1.4116e-03  3.6332e-04  1.1329e-04  1.3830e-03  1.7696e-04  7.7928e-05  0:01:32  640
  3780  1.4105e-03  3.4926e-04  1.1265e-04  1.3818e-03  1.7705e-04  7.7969e-05  0:01:13  639
  3781  1.4095e-03  3.3608e-04  1.1194e-04  1.3807e-03  1.7719e-04  7.8013e-05  0:00:59  638
  3782  1.4089e-03  3.2720e-04  1.1085e-04  1.3800e-03  1.7736e-04  7.8065e-05  0:00:47  637

  iter  continuity  x-velocity  y-velocity      energy           k       omega     time/iter
  3783  1.4085e-03  3.2224e-04  1.1045e-04  1.3795e-03  1.7758e-04  7.8110e-05  0:00:37  636
  3784  1.4083e-03  3.2004e-04  1.1048e-04  1.3793e-03  1.7785e-04  7.8143e-05  0:00:30  635
  3785  1.4082e-03  3.1576e-04  1.1073e-04  1.3790e-03  1.7812e-04  7.8164e-05  0:00:24  634
  3786  1.4079e-03  3.0907e-04  1.1091e-04  1.3786e-03  1.7836e-04  7.8138e-05  0:00:19  633
  3787  1.4079e-03  3.0765e-04  1.1086e-04  1.3785e-03  1.7858e-04  7.8077e-05  0:02:22  632
  3788  1.4079e-03  3.0806e-04  1.1042e-04  1.3784e-03  1.7879e-04  7.7983e-05  0:01:53  631
  3789  1.4077e-03  3.1046e-04  1.1000e-04  1.3781e-03  1.7894e-04  7.7891e-05  0:01:30  630
  3790  1.4076e-03  3.1634e-04  1.0962e-04  1.3780e-03  1.7907e-04  7.7880e-05  0:01:12  629
  3791  1.4074e-03  3.2108e-04  1.0952e-04  1.3776e-03  1.7919e-04  7.7915e-05  0:00:58  628
  3792  1.4061e-03  3.1238e-04  1.0973e-04  1.3763e-03  1.7925e-04  7.7913e-05  0:00:46  627
  3793  1.4045e-03  3.0639e-04  1.0960e-04  1.3747e-03  1.7928e-04  7.7861e-05  0:00:37  626

  iter  continuity  x-velocity  y-velocity      energy           k       omega     time/iter
  3794  1.4028e-03  2.9870e-04  1.0972e-04  1.3730e-03  1.7926e-04  7.7752e-05  0:00:29  625
  3795  1.4013e-03  2.9855e-04  1.1021e-04  1.3715e-03  1.7920e-04  7.7607e-05  0:00:23  624
  3796  1.3998e-03  3.0348e-04  1.1052e-04  1.3699e-03  1.7911e-04  7.7437e-05  0:02:23  623
  3797  1.3979e-03  3.0787e-04  1.1128e-04  1.3680e-03  1.7897e-04  7.7230e-05  0:01:54  622
  3798  1.3953e-03  3.0453e-04  1.1184e-04  1.3653e-03  1.7879e-04  7.7009e-05  0:01:31  621
  3799  1.3923e-03  3.0287e-04  1.1250e-04  1.3624e-03  1.7861e-04  7.6804e-05  0:01:13  620
  3800  1.3893e-03  3.0776e-04  1.1329e-04  1.3595e-03  1.7841e-04  7.6611e-05  0:00:58  619
  3801  1.3863e-03  3.1394e-04  1.1410e-04  1.3566e-03  1.7820e-04  7.6456e-05  0:00:47  618
  3802  1.3833e-03  3.1842e-04  1.1500e-04  1.3537e-03  1.7799e-04  7.6336e-05  0:00:37  617
  3803  1.3806e-03  3.2053e-04  1.1595e-04  1.3510e-03  1.7777e-04  7.6268e-05  0:00:30  616
  3804  1.3785e-03  3.2517e-04  1.1717e-04  1.3488e-03  1.7756e-04  7.6279e-05  0:00:24  615

  iter  continuity  x-velocity  y-velocity      energy           k       omega     time/iter
  3805  1.3766e-03  3.2370e-04  1.1865e-04  1.3468e-03  1.7739e-04  7.6351e-05  0:02:22  614
  3806  1.3749e-03  3.1795e-04  1.2023e-04  1.3449e-03  1.7722e-04  7.6491e-05  0:01:53  613
  3807  1.3736e-03  3.1462e-04  1.2227e-04  1.3434e-03  1.7708e-04  7.6684e-05  0:01:30  612
  3808  1.3728e-03  3.1390e-04  1.2410e-04  1.3424e-03  1.7693e-04  7.6875e-05  0:01:12  611
  3809  1.3724e-03  3.1144e-04  1.2551e-04  1.3417e-03  1.7680e-04  7.7058e-05  0:00:58  610
  3810  1.3723e-03  3.0868e-04  1.2707e-04  1.3414e-03  1.7669e-04  7.7255e-05  0:00:46  609
  3811  1.3729e-03  3.1079e-04  1.2819e-04  1.3418e-03  1.7660e-04  7.7469e-05  0:00:37  608
  3812  1.3742e-03  3.2264e-04  1.2933e-04  1.3429e-03  1.7652e-04  7.7654e-05  0:00:29  607
  3813  1.3755e-03  3.3327e-04  1.3039e-04  1.3440e-03  1.7644e-04  7.7808e-05  0:00:23  606
  3814  1.3754e-03  3.2278e-04  1.3124e-04  1.3439e-03  1.7636e-04  7.7965e-05  0:02:20  605
  3815  1.3755e-03  3.2622e-04  1.3167e-04  1.3439e-03  1.7629e-04  7.8063e-05  0:01:52  604

  iter  continuity  x-velocity  y-velocity      energy           k       omega     time/iter
  3816  1.3752e-03  3.2577e-04  1.3259e-04  1.3436e-03  1.7624e-04  7.8099e-05  0:01:29  603
  3817  1.3744e-03  3.1977e-04  1.3315e-04  1.3428e-03  1.7621e-04  7.8110e-05  0:01:11  602
  3818  1.3732e-03  3.1567e-04  1.3376e-04  1.3414e-03  1.7620e-04  7.8091e-05  0:00:57  601
  3819  1.3716e-03  3.1387e-04  1.3351e-04  1.3398e-03  1.7622e-04  7.8067e-05  0:00:45  600
  3820  1.3699e-03  3.1259e-04  1.3355e-04  1.3381e-03  1.7629e-04  7.8046e-05  0:00:36  599
  3821  1.3681e-03  3.1380e-04  1.3294e-04  1.3362e-03  1.7636e-04  7.8066e-05  0:00:29  598
  3822  1.3663e-03  3.2259e-04  1.3214e-04  1.3343e-03  1.7646e-04  7.8126e-05  0:00:23  597
  3823  1.3645e-03  3.3582e-04  1.3150e-04  1.3324e-03  1.7656e-04  7.8213e-05  0:02:18  596
  3824  1.3620e-03  3.4068e-04  1.3068e-04  1.3299e-03  1.7667e-04  7.8312e-05  0:01:50  595
  3825  1.3587e-03  3.3534e-04  1.3028e-04  1.3266e-03  1.7677e-04  7.8397e-05  0:01:28  594
  3826  1.3557e-03  3.3641e-04  1.2977e-04  1.3234e-03  1.7687e-04  7.8516e-05  0:01:10  593

  iter  continuity  x-velocity  y-velocity      energy           k       omega     time/iter
  3827  1.3526e-03  3.3820e-04  1.2945e-04  1.3203e-03  1.7696e-04  7.8643e-05  0:00:56  592
  3828  1.3496e-03  3.3607e-04  1.2940e-04  1.3172e-03  1.7707e-04  7.8808e-05  0:00:45  591
  3829  1.3465e-03  3.2966e-04  1.2951e-04  1.3140e-03  1.7718e-04  7.8990e-05  0:00:36  590
  3830  1.3440e-03  3.3277e-04  1.3032e-04  1.3112e-03  1.7729e-04  7.9166e-05  0:00:29  589
  3831  1.3410e-03  3.3657e-04  1.3018e-04  1.3082e-03  1.7741e-04  7.9330e-05  0:00:23  588
  3832  1.3384e-03  3.3697e-04  1.2986e-04  1.3053e-03  1.7753e-04  7.9467e-05  0:00:18  587
  3833  1.3349e-03  3.4144e-04  1.3009e-04  1.3017e-03  1.7765e-04  7.9592e-05  0:02:12  586
  3834  1.3317e-03  3.4929e-04  1.2983e-04  1.2983e-03  1.7779e-04  7.9689e-05  0:01:45  585
  3835  1.3270e-03  3.5342e-04  1.2947e-04  1.2935e-03  1.7794e-04  7.9760e-05  0:01:24  584
  3836  1.3212e-03  3.5043e-04  1.2864e-04  1.2878e-03  1.7808e-04  7.9833e-05  0:01:07  583
  3837  1.3144e-03  3.3923e-04  1.2781e-04  1.2810e-03  1.7822e-04  7.9892e-05  0:00:54  582

  iter  continuity  x-velocity  y-velocity      energy           k       omega     time/iter
  3838  1.3074e-03  3.3021e-04  1.2735e-04  1.2740e-03  1.7839e-04  7.9945e-05  0:00:43  581
  3839  1.3007e-03  3.2965e-04  1.2675e-04  1.2673e-03  1.7856e-04  8.0068e-05  0:00:34  580
  3840  1.2937e-03  3.2580e-04  1.2626e-04  1.2603e-03  1.7876e-04  8.0200e-05  0:00:27  579
  3841  1.2873e-03  3.2998e-04  1.2575e-04  1.2540e-03  1.7892e-04  8.0297e-05  0:00:22  578
  3842  1.2808e-03  3.3001e-04  1.2544e-04  1.2474e-03  1.7903e-04  8.0359e-05  0:02:13  577
  3843  1.2744e-03  3.2524e-04  1.2509e-04  1.2409e-03  1.7911e-04  8.0440e-05  0:01:46  576
  3844  1.2683e-03  3.2454e-04  1.2497e-04  1.2348e-03  1.7917e-04  8.0511e-05  0:01:25  575
  3845  1.2627e-03  3.2651e-04  1.2435e-04  1.2291e-03  1.7920e-04  8.0564e-05  0:01:08  574
  3846  1.2573e-03  3.2851e-04  1.2378e-04  1.2235e-03  1.7919e-04  8.0586e-05  0:00:54  573
  3847  1.2522e-03  3.3478e-04  1.2340e-04  1.2183e-03  1.7914e-04  8.0618e-05  0:00:43  572
  3848  1.2471e-03  3.3632e-04  1.2305e-04  1.2130e-03  1.7905e-04  8.0662e-05  0:00:34  571

  iter  continuity  x-velocity  y-velocity      energy           k       omega     time/iter
  3849  1.2419e-03  3.3365e-04  1.2309e-04  1.2076e-03  1.7897e-04  8.0760e-05  0:02:22  570
  3850  1.2375e-03  3.4247e-04  1.2322e-04  1.2030e-03  1.7887e-04  8.0876e-05  0:01:53  569
  3851  1.2325e-03  3.4936e-04  1.2367e-04  1.1979e-03  1.7873e-04  8.1016e-05  0:01:30  568
  3852  1.2271e-03  3.4883e-04  1.2426e-04  1.1924e-03  1.7857e-04  8.1178e-05  0:01:12  567
  3853  1.2216e-03  3.4673e-04  1.2520e-04  1.1866e-03  1.7839e-04  8.1366e-05  0:00:58  566
  3854  1.2161e-03  3.4834e-04  1.2567e-04  1.1810e-03  1.7818e-04  8.1574e-05  0:00:46  565
  3855  1.2102e-03  3.4148e-04  1.2643e-04  1.1751e-03  1.7794e-04  8.1790e-05  0:00:37  564
  3856  1.2045e-03  3.4039e-04  1.2782e-04  1.1693e-03  1.7769e-04  8.2056e-05  0:00:29  563
  3857  1.1988e-03  3.3966e-04  1.2851e-04  1.1634e-03  1.7743e-04  8.2339e-05  0:00:23  562
  3858  1.1934e-03  3.4075e-04  1.2876e-04  1.1578e-03  1.7715e-04  8.2646e-05  0:02:11  561
  3859  1.1878e-03  3.3777e-04  1.2872e-04  1.1521e-03  1.7685e-04  8.2980e-05  0:01:45  560

  iter  continuity  x-velocity  y-velocity      energy           k       omega     time/iter
  3860  1.1826e-03  3.3392e-04  1.2893e-04  1.1466e-03  1.7651e-04  8.3320e-05  0:01:23  559
  3861  1.1766e-03  3.2117e-04  1.2882e-04  1.1405e-03  1.7615e-04  8.3680e-05  0:01:07  558
  3862  1.1721e-03  3.2317e-04  1.2830e-04  1.1358e-03  1.7582e-04  8.4068e-05  0:00:53  557
  3863  1.1679e-03  3.3263e-04  1.2758e-04  1.1316e-03  1.7552e-04  8.4492e-05  0:00:43  556
  3864  1.1640e-03  3.3630e-04  1.2745e-04  1.1274e-03  1.7522e-04  8.4907e-05  0:00:34  555
  3865  1.1598e-03  3.4210e-04  1.2734e-04  1.1232e-03  1.7493e-04  8.5307e-05  0:00:27  554
  3866  1.1558e-03  3.5064e-04  1.2741e-04  1.1191e-03  1.7467e-04  8.5649e-05  0:00:22  553
  3867  1.1511e-03  3.5872e-04  1.2693e-04  1.1142e-03  1.7446e-04  8.5929e-05  0:02:08  552
  3868  1.1456e-03  3.6336e-04  1.2623e-04  1.1087e-03  1.7428e-04  8.6178e-05  0:01:42  551
  3869  1.1393e-03  3.6458e-04  1.2554e-04  1.1026e-03  1.7412e-04  8.6444e-05  0:01:21  550
  3870  1.1324e-03  3.5945e-04  1.2453e-04  1.0957e-03  1.7396e-04  8.6697e-05  0:01:05  549

  iter  continuity  x-velocity  y-velocity      energy           k       omega     time/iter
  3871  1.1256e-03  3.6340e-04  1.2382e-04  1.0889e-03  1.7380e-04  8.6938e-05  0:00:52  548
  3872  1.1185e-03  3.5998e-04  1.2350e-04  1.0820e-03  1.7363e-04  8.7137e-05  0:00:41  547
  3873  1.1112e-03  3.5750e-04  1.2358e-04  1.0746e-03  1.7345e-04  8.7319e-05  0:00:33  546
  3874  1.1039e-03  3.5578e-04  1.2352e-04  1.0673e-03  1.7327e-04  8.7477e-05  0:00:26  545
  3875  1.0967e-03  3.4892e-04  1.2409e-04  1.0600e-03  1.7311e-04  8.7680e-05  0:00:21  544
  3876  1.0896e-03  3.4391e-04  1.2431e-04  1.0530e-03  1.7299e-04  8.7897e-05  0:00:17  543
  3877  1.0831e-03  3.3601e-04  1.2414e-04  1.0465e-03  1.7290e-04  8.8134e-05  0:02:02  542
  3878  1.0775e-03  3.3360e-04  1.2373e-04  1.0408e-03  1.7285e-04  8.8349e-05  0:01:37  541
  3879  1.0720e-03  3.2865e-04  1.2378e-04  1.0354e-03  1.7280e-04  8.8626e-05  0:01:18  540
  3880  1.0669e-03  3.2789e-04  1.2481e-04  1.0303e-03  1.7273e-04  8.8882e-05  0:01:02  539
  3881  1.0626e-03  3.3513e-04  1.2582e-04  1.0260e-03  1.7268e-04  8.9128e-05  0:00:50  538

  iter  continuity  x-velocity  y-velocity      energy           k       omega     time/iter
  3882  1.0583e-03  3.3755e-04  1.2717e-04  1.0217e-03  1.7264e-04  8.9363e-05  0:00:40  537
  3883  1.0541e-03  3.4500e-04  1.2822e-04  1.0173e-03  1.7264e-04  8.9594e-05  0:00:32  536
  3884  1.0497e-03  3.5024e-04  1.2961e-04  1.0129e-03  1.7266e-04  8.9807e-05  0:00:25  535
  3885  1.0449e-03  3.4843e-04  1.2960e-04  1.0080e-03  1.7265e-04  8.9909e-05  0:00:20  534
  3886  1.0405e-03  3.5615e-04  1.2931e-04  1.0033e-03  1.7258e-04  8.9958e-05  0:00:16  533
  3887  1.0348e-03  3.6732e-04  1.2810e-04  9.9770e-04  1.7248e-04  8.9954e-05  0:00:13  532
  3888  1.0279e-03  3.6829e-04  1.2688e-04  9.9098e-04  1.7238e-04  8.9865e-05  0:01:56  531
  3889  1.0199e-03  3.5650e-04  1.2605e-04  9.8300e-04  1.7225e-04  8.9764e-05  0:01:33  530
  3890  1.0127e-03  3.6338e-04  1.2553e-04  9.7612e-04  1.7216e-04  8.9622e-05  0:01:14  529
  3891  1.0049e-03  3.5960e-04  1.2556e-04  9.6844e-04  1.7215e-04  8.9681e-05  0:00:59  528
  3892  9.9760e-04  3.6172e-04  1.2667e-04  9.6117e-04  1.7214e-04  8.9731e-05  0:00:47  527
! 3892 solution is converged

> /plot/plot yes loading.txt yes no no absolute-pressure yes 1 0 upper-blade ()

> ;exit yes

> /exit y

Posting ANSYS Product Improvement Program performance data 
Done.
(cx-gui-do cx-activate-item "Question*OK")
