
              Welcome to ANSYS Fluent 2021 R2

              Copyright 1987-2021 ANSYS, Inc. All Rights Reserved.
              Unauthorized use, distribution or duplication is prohibited.
              This product is subject to U.S. laws governing export and re-export.
              For full Legal Notice, see documentation.

Build Time: May 28 2021 13:54:56 EDT  Build Id: 10201  
 

     --------------------------------------------------------------
     This is an academic version of ANSYS FLUENT. Usage of this product
     license is limited to the terms and conditions specified in your ANSYS
     license form, additional terms section.
     --------------------------------------------------------------
Host spawning Node 0 on machine "WL-CH-009" (win64).

-------------------------------------------------------------------------------
ID    Hostname   Core   O.S.         PID    Vendor                       
-------------------------------------------------------------------------------
n31   WL-CH-009  32/36  Windows-x64  45980  Intel(R) Xeon(R) W-2295      
n30   WL-CH-009  31/36  Windows-x64  33156  Intel(R) Xeon(R) W-2295      
n29   WL-CH-009  30/36  Windows-x64  18016  Intel(R) Xeon(R) W-2295      
n28   WL-CH-009  29/36  Windows-x64  39180  Intel(R) Xeon(R) W-2295      
n27   WL-CH-009  28/36  Windows-x64  37080  Intel(R) Xeon(R) W-2295      
n26   WL-CH-009  27/36  Windows-x64  34548  Intel(R) Xeon(R) W-2295      
n25   WL-CH-009  26/36  Windows-x64  35040  Intel(R) Xeon(R) W-2295      
n24   WL-CH-009  25/36  Windows-x64  22776  Intel(R) Xeon(R) W-2295      
n23   WL-CH-009  24/36  Windows-x64  34736  Intel(R) Xeon(R) W-2295      
n22   WL-CH-009  23/36  Windows-x64  38524  Intel(R) Xeon(R) W-2295      
n21   WL-CH-009  22/36  Windows-x64  23768  Intel(R) Xeon(R) W-2295      
n20   WL-CH-009  21/36  Windows-x64  33980  Intel(R) Xeon(R) W-2295      
n19   WL-CH-009  20/36  Windows-x64  15916  Intel(R) Xeon(R) W-2295      
n18   WL-CH-009  19/36  Windows-x64  18128  Intel(R) Xeon(R) W-2295      
n17   WL-CH-009  18/36  Windows-x64  2324   Intel(R) Xeon(R) W-2295      
n16   WL-CH-009  17/36  Windows-x64  31084  Intel(R) Xeon(R) W-2295      
n15   WL-CH-009  16/36  Windows-x64  43076  Intel(R) Xeon(R) W-2295      
n14   WL-CH-009  15/36  Windows-x64  38620  Intel(R) Xeon(R) W-2295      
n13   WL-CH-009  14/36  Windows-x64  24096  Intel(R) Xeon(R) W-2295      
n12   WL-CH-009  13/36  Windows-x64  30096  Intel(R) Xeon(R) W-2295      
-------------------------------------------------------------------------------
ID    Hostname   Core   O.S.         PID    Vendor                       
-------------------------------------------------------------------------------
n11   WL-CH-009  12/36  Windows-x64  38776  Intel(R) Xeon(R) W-2295      
n10   WL-CH-009  11/36  Windows-x64  45748  Intel(R) Xeon(R) W-2295      
n9    WL-CH-009  10/36  Windows-x64  31564  Intel(R) Xeon(R) W-2295      
n8    WL-CH-009  9/36   Windows-x64  26328  Intel(R) Xeon(R) W-2295      
n7    WL-CH-009  8/36   Windows-x64  17492  Intel(R) Xeon(R) W-2295      
n6    WL-CH-009  7/36   Windows-x64  38480  Intel(R) Xeon(R) W-2295      
n5    WL-CH-009  6/36   Windows-x64  37488  Intel(R) Xeon(R) W-2295      
n4    WL-CH-009  5/36   Windows-x64  14720  Intel(R) Xeon(R) W-2295      
n3    WL-CH-009  4/36   Windows-x64  39308  Intel(R) Xeon(R) W-2295      
n2    WL-CH-009  3/36   Windows-x64  15280  Intel(R) Xeon(R) W-2295      
n1    WL-CH-009  2/36   Windows-x64  6332   Intel(R) Xeon(R) W-2295      
n0*   WL-CH-009  1/36   Windows-x64  24120  Intel(R) Xeon(R) W-2295      
host  WL-CH-009         Windows-x64  35108  Intel(R) Xeon(R) W-2295      

MPI Option Selected: intel
Selected system interconnect: default
-------------------------------------------------------------------------------

Cleanup script file is E:\\MATLAB\\RANS_optimisation\\cleanup-fluent-WL-CH-009-35108.bat

Posting ANSYS Product Improvement Program startup data
Done.

Reading journal file E:\MATLAB\RANS_optimisation\run7\fluent_input.jou...

> /sync-chdir E:\MATLAB\RANS_optimisation\run7

> /file/read-case "grid.msh"
Reading "grid.msh"...

Buffering for file scan...

  112722 quadrilateral cells, zone  9.
  224998 2D interior faces, zone  2.
Warning: Reversing 238 faces, zone  2.
     237 2D pressure-inlet faces, zone  3.
Warning: Reversing 237 faces, zone  3.
     477 2D pressure-outlet faces, zone  4.
Warning: Reversing 477 faces, zone  4.
     477 2D pressure-outlet faces, zone  5.
     207 2D pressure-outlet faces, zone  6.
     254 2D wall faces, zone  7.
Warning: Reversing 15 faces, zone  7.
     252 2D wall faces, zone  8.
Warning: Reversing 223 faces, zone  8.
  113674 nodes.

Building...
     mesh
	auto partitioning mesh by Metis (fast),
	distributing mesh
		parts................................,
		faces................................,
		nodes................................,
		cells................................,
        bandwidth reduction using Reverse Cuthill-McKee: 2716/83 = 32.7229
     materials,
     interface,
     domains,
     zones,
	fluid-9
	wall-8
	wall-7
	pressure-outlet-6
	pressure-outlet-5
	pressure-outlet-4
	pressure-inlet-3
	interior-2
     parallel,
Done.

Preparing mesh for display...
Done.
 

> /define/boundary-conditions/modify-zones/zone-name 3 inlet 

> /define/boundary-conditions/modify-zones/zone-name 4 upper 

> /define/boundary-conditions/modify-zones/zone-name 5 lower 

> /define/boundary-conditions/modify-zones/zone-name 6 outlet

> /define/boundary-conditions/modify-zones/zone-name 7 upper-blade

> /define/boundary-conditions/modify-zones/zone-name 8 lower-blade

> /define/materials/change-create air air air is a fluid
yes 
Density
ideal-gas no data required.

yes 
Cp (Specific Heat)
constant 1005 
yes 
Thermal Conductivity
expression "DynamicViscosity*1005 [J/(kg K)]/0.72"
 yes 
Viscosity
sutherland three-coefficient-method 5.83247e-04 273 110.4 
no no no

Note: Enabling energy equation as required by material density method.

> /define/operating-conditions/operating-pressure 0

> /define/models/viscous/kw-sst? yes

> /define/boundary-conditions/zone-type inlet pressure-inlet 

> /define/boundary-conditions/pressure-inlet (inlet)
inlet yes no 74575.2 no 46984 no 300 no yes no no yes 0.5 1

> /define/boundary-conditions/zone-type outlet pressure-outlet 

> /define/boundary-conditions/bc-settings/pressure-outlet 0. 65 

> /define/boundary-conditions/pressure-outlet (outlet upper lower)
outlet yes no 46984 no 300 no yes no no yes 0.5 1 yes no no

> /define/boundary-conditions/copy-bc outlet (upper lower)Copy outlet boundary conditions to lower
Copy outlet boundary conditions to upper


> /define/boundary-conditions/wall (upper-blade lower-blade)
upper-blade 0 no 0 no no no 0 no no no no 0 no 0.5 no 1

> /define/boundary-conditions/copy-bc upper-blade (lower-blade)Copy upper-blade boundary conditions to lower-blade


> /define/models/solver/densit-based-implicit yes

> /file/read-data E:\MATLAB\RANS_optimisation\clean.dat

Reading "E:\MATLAB\RANS_optimisation\clean.dat"...



Parallel variables...
Done.

> ;/solve/initialize/initialize-flow
;/solve/initialize/compute-defaults/pressure-inlet inlet
;/solve/initialize/initialize-flow yes
;/solve/initialize/hyb-initialization
/solve/iterate 2000

  iter  continuity  x-velocity  y-velocity      energy           k       omega     time/iter
  2419  9.9521e-04  3.5719e-04  6.8654e-05  9.7828e-04  1.7105e-04  4.2984e-05  0:00:00 2000
  2420  9.1960e-02  6.2801e-02  5.4840e-02  9.1963e-02  4.0298e-03  1.1786e-02  0:00:00 1999
  2421  8.0238e-02  4.8099e-02  5.3912e-02  8.0807e-02  3.8468e-03  9.8542e-03  0:00:00 1998
  2422  6.1261e-02  3.3675e-02  5.2289e-02  6.1780e-02  3.6616e-03  7.7289e-03  0:00:00 1997
  2423  4.6146e-02  2.4826e-02  4.6395e-02  4.6034e-02  3.4746e-03  6.2974e-03  0:00:00 1996
  2424  3.6002e-02  2.0364e-02  3.8318e-02  3.5443e-02  3.2863e-03  5.8013e-03  0:00:00 1995
  2425  2.9613e-02  1.8285e-02  3.0135e-02  2.9004e-02  3.0978e-03  5.4151e-03  0:33:14 1994
  2426  2.5725e-02  1.6859e-02  2.3389e-02  2.5257e-02  2.9155e-03  5.0039e-03  0:26:34 1993
  2427  2.3524e-02  1.5554e-02  1.8485e-02  2.3220e-02  2.7405e-03  4.5264e-03  0:21:15 1992
  2428  2.2210e-02  1.4287e-02  1.5170e-02  2.2026e-02  2.5805e-03  4.0810e-03  0:16:59 1991
  2429  2.1217e-02  1.3066e-02  1.3031e-02  2.1111e-02  2.4371e-03  3.6108e-03  0:13:35 1990

  iter  continuity  x-velocity  y-velocity      energy           k       omega     time/iter
  2430  2.0224e-02  1.1853e-02  1.1693e-02  2.0161e-02  2.3090e-03  3.1591e-03  0:10:52 1989
  2431  1.9115e-02  1.0641e-02  1.0851e-02  1.9064e-02  2.1974e-03  2.7909e-03  0:08:41 1988
  2432  1.7931e-02  9.4618e-03  1.0272e-02  1.7871e-02  2.1019e-03  2.5591e-03  0:06:57 1987
  2433  1.6743e-02  8.3509e-03  9.7597e-03  1.6653e-02  2.0193e-03  2.3828e-03  0:05:33 1986
  2434  1.5636e-02  7.3659e-03  9.2793e-03  1.5505e-02  1.9463e-03  2.2433e-03  0:11:03 1985
  2435  1.4664e-02  6.5436e-03  8.7584e-03  1.4483e-02  1.8812e-03  2.1535e-03  0:08:50 1984
  2436  1.3868e-02  5.9761e-03  8.2376e-03  1.3635e-02  1.8225e-03  2.1145e-03  0:07:04 1983
  2437  1.3226e-02  5.6941e-03  7.7115e-03  1.2945e-02  1.7677e-03  2.0997e-03  0:05:39 1982
  2438  1.2722e-02  5.6688e-03  7.2089e-03  1.2398e-02  1.7170e-03  2.1041e-03  0:04:31 1981
  2439  1.2327e-02  5.8467e-03  6.7266e-03  1.1968e-02  1.6697e-03  2.1202e-03  0:03:37 1980
  2440  1.2015e-02  6.1364e-03  6.3026e-03  1.1629e-02  1.6253e-03  2.1294e-03  0:02:53 1979

  iter  continuity  x-velocity  y-velocity      energy           k       omega     time/iter
  2441  1.1770e-02  6.4543e-03  5.9420e-03  1.1363e-02  1.5853e-03  2.1387e-03  0:02:19 1978
  2442  1.1603e-02  6.7558e-03  5.6538e-03  1.1179e-02  1.5502e-03  2.1456e-03  0:01:51 1977
  2443  1.1536e-02  6.9912e-03  5.4208e-03  1.1099e-02  1.5189e-03  2.1446e-03  0:01:29 1976
  2444  1.1635e-02  7.1652e-03  5.2474e-03  1.1186e-02  1.4907e-03  2.1466e-03  0:07:46 1975
  2445  1.1902e-02  7.2718e-03  5.1236e-03  1.1446e-02  1.4670e-03  2.1500e-03  0:06:13 1974
  2446  1.2392e-02  7.3137e-03  5.0423e-03  1.1932e-02  1.4474e-03  2.1512e-03  0:04:58 1973
  2447  1.3070e-02  7.3073e-03  4.9880e-03  1.2612e-02  1.4311e-03  2.1414e-03  0:03:58 1972
  2448  1.3905e-02  7.2555e-03  4.9268e-03  1.3452e-02  1.4200e-03  2.1101e-03  0:03:10 1971
  2449  1.4863e-02  7.1738e-03  4.8667e-03  1.4418e-02  1.4116e-03  2.0769e-03  0:02:32 1970
  2450  1.5933e-02  7.0649e-03  4.7893e-03  1.5499e-02  1.4067e-03  2.0424e-03  0:02:02 1969
  2451  1.7043e-02  6.9463e-03  4.7043e-03  1.6620e-02  1.4036e-03  2.0034e-03  0:01:37 1968

  iter  continuity  x-velocity  y-velocity      energy           k       omega     time/iter
  2452  1.8135e-02  6.8349e-03  4.6082e-03  1.7723e-02  1.4024e-03  1.9702e-03  0:01:18 1967
  2453  1.9155e-02  6.7404e-03  4.4888e-03  1.8756e-02  1.4033e-03  1.9324e-03  0:01:02 1966
  2454  2.0077e-02  6.6732e-03  4.3297e-03  1.9693e-02  1.4049e-03  1.9002e-03  0:00:50 1965
  2455  2.0900e-02  6.6335e-03  4.1461e-03  2.0527e-02  1.4079e-03  1.8684e-03  0:07:13 1964
  2456  2.1612e-02  6.6231e-03  3.9519e-03  2.1254e-02  1.4114e-03  1.8432e-03  0:05:46 1963
  2457  2.2192e-02  6.6355e-03  3.7514e-03  2.1850e-02  1.4158e-03  1.8254e-03  0:04:37 1962
  2458  2.2598e-02  6.6592e-03  3.5712e-03  2.2270e-02  1.4210e-03  1.8141e-03  0:03:41 1961
  2459  2.2822e-02  6.6868e-03  3.4383e-03  2.2510e-02  1.4267e-03  1.7984e-03  0:02:57 1960
  2460  2.2866e-02  6.7009e-03  3.3329e-03  2.2571e-02  1.4332e-03  1.8004e-03  0:02:21 1959
  2461  2.2758e-02  6.7117e-03  3.2290e-03  2.2480e-02  1.4406e-03  1.7977e-03  0:01:53 1958
  2462  2.2511e-02  6.7141e-03  3.1119e-03  2.2249e-02  1.4463e-03  1.7852e-03  0:01:30 1957

  iter  continuity  x-velocity  y-velocity      energy           k       omega     time/iter
  2463  2.2153e-02  6.6976e-03  3.0508e-03  2.1904e-02  1.4548e-03  1.7721e-03  0:01:12 1956
  2464  2.1715e-02  6.6570e-03  3.0328e-03  2.1479e-02  1.4623e-03  1.7599e-03  0:07:29 1955
  2465  2.1187e-02  6.5893e-03  3.0399e-03  2.0964e-02  1.4691e-03  1.7494e-03  0:05:59 1954
  2466  2.0575e-02  6.5066e-03  3.0736e-03  2.0364e-02  1.4784e-03  1.7409e-03  0:04:47 1953
  2467  1.9895e-02  6.4093e-03  3.0983e-03  1.9696e-02  1.4850e-03  1.7328e-03  0:03:49 1952
  2468  1.9158e-02  6.2971e-03  3.1178e-03  1.8970e-02  1.4907e-03  1.7144e-03  0:03:03 1951
  2469  1.8376e-02  6.1870e-03  3.1030e-03  1.8197e-02  1.4974e-03  1.6969e-03  0:02:27 1950
  2470  1.7560e-02  6.0628e-03  3.0985e-03  1.7387e-02  1.4999e-03  1.6823e-03  0:01:57 1949
  2471  1.6716e-02  5.9205e-03  3.1039e-03  1.6547e-02  1.5044e-03  1.6675e-03  0:01:34 1948
  2472  1.5873e-02  5.7706e-03  3.1255e-03  1.5705e-02  1.5066e-03  1.6546e-03  0:01:15 1947
  2473  1.5048e-02  5.6312e-03  3.1562e-03  1.4882e-02  1.5076e-03  1.6466e-03  0:01:00 1946

  iter  continuity  x-velocity  y-velocity      energy           k       omega     time/iter
  2474  1.4243e-02  5.4978e-03  3.1520e-03  1.4081e-02  1.5098e-03  1.6374e-03  0:07:17 1945
  2475  1.3456e-02  5.3711e-03  3.1353e-03  1.3297e-02  1.5093e-03  1.6311e-03  0:05:49 1944
  2476  1.2696e-02  5.2496e-03  3.1136e-03  1.2540e-02  1.5093e-03  1.6158e-03  0:04:39 1943
  2477  1.1988e-02  5.1272e-03  3.0702e-03  1.1833e-02  1.5104e-03  1.5937e-03  0:03:43 1942
  2478  1.1340e-02  5.0063e-03  3.0472e-03  1.1183e-02  1.5096e-03  1.5766e-03  0:02:59 1941
  2479  1.0761e-02  4.8904e-03  3.0361e-03  1.0603e-02  1.5083e-03  1.5683e-03  0:02:23 1940
  2480  1.0274e-02  4.7807e-03  3.0482e-03  1.0115e-02  1.5082e-03  1.5610e-03  0:01:54 1939
  2481  9.8738e-03  4.6861e-03  3.0381e-03  9.7199e-03  1.5097e-03  1.5504e-03  0:01:31 1938
  2482  9.5438e-03  4.5978e-03  3.0201e-03  9.3954e-03  1.5121e-03  1.5456e-03  0:01:13 1937
  2483  9.2751e-03  4.5040e-03  3.0071e-03  9.1325e-03  1.5150e-03  1.5357e-03  0:00:58 1936
  2484  9.0490e-03  4.4175e-03  2.9655e-03  8.9080e-03  1.5194e-03  1.5213e-03  0:07:14 1935

  iter  continuity  x-velocity  y-velocity      energy           k       omega     time/iter
  2485  8.8979e-03  4.3366e-03  2.9326e-03  8.7593e-03  1.5230e-03  1.5079e-03  0:05:47 1934
  2486  8.8213e-03  4.2615e-03  2.8988e-03  8.6864e-03  1.5273e-03  1.4987e-03  0:04:37 1933
  2487  8.7846e-03  4.1847e-03  2.8708e-03  8.6521e-03  1.5328e-03  1.4918e-03  0:03:42 1932
  2488  8.7829e-03  4.1169e-03  2.8435e-03  8.6529e-03  1.5395e-03  1.4854e-03  0:02:57 1931
  2489  8.8201e-03  4.0589e-03  2.7964e-03  8.6930e-03  1.5457e-03  1.4770e-03  0:02:22 1930
  2490  8.8823e-03  3.9983e-03  2.7540e-03  8.7593e-03  1.5506e-03  1.4706e-03  0:01:53 1929
  2491  8.9586e-03  3.9431e-03  2.7032e-03  8.8372e-03  1.5569e-03  1.4683e-03  0:01:31 1928
  2492  9.0605e-03  3.8892e-03  2.6515e-03  8.9411e-03  1.5644e-03  1.4688e-03  0:01:12 1927
  2493  9.1749e-03  3.8410e-03  2.5963e-03  9.0567e-03  1.5732e-03  1.4651e-03  0:00:58 1926
  2494  9.3018e-03  3.8019e-03  2.5444e-03  9.1844e-03  1.5807e-03  1.4504e-03  0:07:11 1925
  2495  9.4415e-03  3.7656e-03  2.4915e-03  9.3257e-03  1.5868e-03  1.4377e-03  0:05:45 1924

  iter  continuity  x-velocity  y-velocity      energy           k       omega     time/iter
  2496  9.5783e-03  3.7374e-03  2.4419e-03  9.4634e-03  1.5940e-03  1.4306e-03  0:04:36 1923
  2497  9.7016e-03  3.7193e-03  2.3956e-03  9.5885e-03  1.6013e-03  1.4284e-03  0:03:40 1922
  2498  9.8205e-03  3.6966e-03  2.3460e-03  9.7099e-03  1.6100e-03  1.4217e-03  0:02:56 1921
  2499  9.9294e-03  3.6748e-03  2.2867e-03  9.8208e-03  1.6174e-03  1.4174e-03  0:02:21 1920
  2500  1.0033e-02  3.6561e-03  2.2244e-03  9.9264e-03  1.6252e-03  1.4126e-03  0:01:53 1919
  2501  1.0123e-02  3.6339e-03  2.1721e-03  1.0019e-02  1.6328e-03  1.4049e-03  0:01:30 1918
  2502  1.0194e-02  3.6153e-03  2.1214e-03  1.0091e-02  1.6422e-03  1.3983e-03  0:01:12 1917
  2503  1.0253e-02  3.6066e-03  2.0815e-03  1.0152e-02  1.6517e-03  1.3880e-03  0:07:21 1916
  2504  1.0305e-02  3.5965e-03  2.0527e-03  1.0206e-02  1.6613e-03  1.3802e-03  0:05:52 1915
  2505  1.0347e-02  3.5935e-03  2.0220e-03  1.0253e-02  1.6705e-03  1.3690e-03  0:04:42 1914
  2506  1.0358e-02  3.5827e-03  1.9822e-03  1.0268e-02  1.6801e-03  1.3580e-03  0:03:45 1913

  iter  continuity  x-velocity  y-velocity      energy           k       omega     time/iter
  2507  1.0329e-02  3.5749e-03  1.9431e-03  1.0241e-02  1.6908e-03  1.3472e-03  0:03:00 1912
  2508  1.0290e-02  3.5599e-03  1.9100e-03  1.0205e-02  1.7013e-03  1.3390e-03  0:02:24 1911
  2509  1.0247e-02  3.5498e-03  1.8844e-03  1.0165e-02  1.7112e-03  1.3313e-03  0:01:55 1910
  2510  1.0190e-02  3.5426e-03  1.8645e-03  1.0111e-02  1.7213e-03  1.3240e-03  0:01:32 1909
  2511  1.0121e-02  3.5342e-03  1.8566e-03  1.0045e-02  1.7331e-03  1.3135e-03  0:01:14 1908
  2512  1.0038e-02  3.5306e-03  1.8509e-03  9.9660e-03  1.7449e-03  1.2989e-03  0:07:20 1907
  2513  9.9360e-03  3.5270e-03  1.8457e-03  9.8670e-03  1.7557e-03  1.2865e-03  0:05:52 1906
  2514  9.8203e-03  3.5176e-03  1.8394e-03  9.7543e-03  1.7660e-03  1.2764e-03  0:04:41 1905
  2515  9.6990e-03  3.5058e-03  1.8315e-03  9.6363e-03  1.7770e-03  1.2637e-03  0:03:45 1904
  2516  9.5657e-03  3.4981e-03  1.8283e-03  9.5059e-03  1.7883e-03  1.2528e-03  0:03:00 1903
  2517  9.4334e-03  3.4846e-03  1.8255e-03  9.3767e-03  1.7996e-03  1.2419e-03  0:02:24 1902

  iter  continuity  x-velocity  y-velocity      energy           k       omega     time/iter
  2518  9.3022e-03  3.4646e-03  1.8152e-03  9.2483e-03  1.8100e-03  1.2303e-03  0:01:55 1901
  2519  9.1810e-03  3.4553e-03  1.8203e-03  9.1299e-03  1.8208e-03  1.2184e-03  0:01:32 1900
  2520  9.0570e-03  3.4485e-03  1.8282e-03  9.0086e-03  1.8311e-03  1.2075e-03  0:07:33 1899
  2521  8.9330e-03  3.4339e-03  1.8309e-03  8.8870e-03  1.8408e-03  1.1964e-03  0:06:02 1898
  2522  8.8122e-03  3.4284e-03  1.8398e-03  8.7684e-03  1.8503e-03  1.1849e-03  0:04:50 1897
  2523  8.6924e-03  3.4287e-03  1.8570e-03  8.6504e-03  1.8599e-03  1.1739e-03  0:03:52 1896
  2524  8.5720e-03  3.4059e-03  1.8608e-03  8.5309e-03  1.8681e-03  1.1626e-03  0:03:05 1895
  2525  8.4609e-03  3.3816e-03  1.8592e-03  8.4206e-03  1.8753e-03  1.1521e-03  0:02:28 1894
  2526  8.3665e-03  3.3613e-03  1.8582e-03  8.3269e-03  1.8829e-03  1.1422e-03  0:01:58 1893
  2527  8.2893e-03  3.3426e-03  1.8586e-03  8.2504e-03  1.8897e-03  1.1316e-03  0:01:35 1892
  2528  8.2280e-03  3.3208e-03  1.8639e-03  8.1892e-03  1.8955e-03  1.1231e-03  0:01:16 1891

  iter  continuity  x-velocity  y-velocity      energy           k       omega     time/iter
  2529  8.1736e-03  3.2983e-03  1.8720e-03  8.1344e-03  1.9008e-03  1.1150e-03  0:01:01 1890
  2530  8.1280e-03  3.2768e-03  1.8831e-03  8.0877e-03  1.9063e-03  1.1073e-03  0:07:06 1889
  2531  8.0956e-03  3.2485e-03  1.8975e-03  8.0539e-03  1.9116e-03  1.0974e-03  0:05:41 1888
  2532  8.0752e-03  3.2189e-03  1.9015e-03  8.0320e-03  1.9150e-03  1.0862e-03  0:04:32 1887
  2533  8.0691e-03  3.1884e-03  1.8974e-03  8.0242e-03  1.9176e-03  1.0755e-03  0:03:38 1886
  2534  8.0741e-03  3.1549e-03  1.8924e-03  8.0271e-03  1.9208e-03  1.0657e-03  0:02:54 1885
  2535  8.0937e-03  3.1218e-03  1.8865e-03  8.0443e-03  1.9234e-03  1.0571e-03  0:02:19 1884
  2536  8.1310e-03  3.0845e-03  1.8801e-03  8.0789e-03  1.9251e-03  1.0488e-03  0:01:51 1883
  2537  8.1740e-03  3.0399e-03  1.8717e-03  8.1189e-03  1.9264e-03  1.0402e-03  0:01:29 1882
  2538  8.2232e-03  2.9960e-03  1.8625e-03  8.1651e-03  1.9266e-03  1.0321e-03  0:01:11 1881
  2539  8.2867e-03  2.9534e-03  1.8533e-03  8.2260e-03  1.9273e-03  1.0244e-03  0:00:57 1880

  iter  continuity  x-velocity  y-velocity      energy           k       omega     time/iter
  2540  8.3589e-03  2.9101e-03  1.8497e-03  8.2955e-03  1.9274e-03  1.0173e-03  0:07:01 1879
  2541  8.4207e-03  2.8633e-03  1.8359e-03  8.3535e-03  1.9270e-03  1.0110e-03  0:05:37 1878
  2542  8.4915e-03  2.8163e-03  1.8198e-03  8.4209e-03  1.9266e-03  1.0031e-03  0:04:29 1877
  2543  8.5635e-03  2.7685e-03  1.8029e-03  8.4898e-03  1.9268e-03  9.9595e-04  0:03:35 1876
  2544  8.6331e-03  2.7233e-03  1.7876e-03  8.5563e-03  1.9280e-03  9.8909e-04  0:02:52 1875
  2545  8.7103e-03  2.6791e-03  1.7685e-03  8.6310e-03  1.9290e-03  9.8307e-04  0:02:18 1874
  2546  8.7782e-03  2.6317e-03  1.7459e-03  8.6963e-03  1.9300e-03  9.7632e-04  0:01:50 1873
  2547  8.8308e-03  2.5831e-03  1.7230e-03  8.7463e-03  1.9309e-03  9.6889e-04  0:01:28 1872
  2548  8.8715e-03  2.5359e-03  1.6985e-03  8.7846e-03  1.9316e-03  9.6045e-04  0:01:10 1871
  2549  8.9037e-03  2.4922e-03  1.6722e-03  8.8148e-03  1.9322e-03  9.5078e-04  0:00:56 1870
  2550  8.9289e-03  2.4499e-03  1.6456e-03  8.8385e-03  1.9328e-03  9.4172e-04  0:06:59 1869

  iter  continuity  x-velocity  y-velocity      energy           k       omega     time/iter
  2551  8.9451e-03  2.4087e-03  1.6211e-03  8.8535e-03  1.9338e-03  9.3306e-04  0:05:35 1868
  2552  8.9418e-03  2.3694e-03  1.5911e-03  8.8490e-03  1.9341e-03  9.2386e-04  0:04:28 1867
  2553  8.9318e-03  2.3347e-03  1.5609e-03  8.8384e-03  1.9335e-03  9.1496e-04  0:03:34 1866
  2554  8.9128e-03  2.3035e-03  1.5353e-03  8.8193e-03  1.9323e-03  9.0617e-04  0:02:51 1865
  2555  8.8704e-03  2.2734e-03  1.5078e-03  8.7769e-03  1.9299e-03  8.9763e-04  0:02:17 1864
  2556  8.8149e-03  2.2473e-03  1.4824e-03  8.7218e-03  1.9270e-03  8.8857e-04  0:01:49 1863
  2557  8.7513e-03  2.2232e-03  1.4585e-03  8.6591e-03  1.9234e-03  8.7815e-04  0:01:27 1862
  2558  8.6737e-03  2.2002e-03  1.4332e-03  8.5828e-03  1.9187e-03  8.6754e-04  0:01:10 1861
  2559  8.5873e-03  2.1780e-03  1.4094e-03  8.4981e-03  1.9127e-03  8.5624e-04  0:00:56 1860
  2560  8.4942e-03  2.1594e-03  1.3877e-03  8.4072e-03  1.9053e-03  8.4548e-04  0:06:57 1859
  2561  8.3946e-03  2.1438e-03  1.3684e-03  8.3100e-03  1.8967e-03  8.3422e-04  0:05:33 1858

  iter  continuity  x-velocity  y-velocity      energy           k       omega     time/iter
  2562  8.3005e-03  2.1294e-03  1.3512e-03  8.2188e-03  1.8872e-03  8.2304e-04  0:04:26 1857
  2563  8.2133e-03  2.1172e-03  1.3358e-03  8.1348e-03  1.8761e-03  8.1142e-04  0:03:33 1856
  2564  8.1258e-03  2.1041e-03  1.3227e-03  8.0507e-03  1.8635e-03  8.0077e-04  0:02:50 1855
  2565  8.0350e-03  2.0936e-03  1.3126e-03  7.9635e-03  1.8494e-03  7.9083e-04  0:02:16 1854
  2566  7.9465e-03  2.0828e-03  1.3057e-03  7.8786e-03  1.8340e-03  7.8090e-04  0:01:49 1853
  2567  7.8619e-03  2.0710e-03  1.3013e-03  7.7976e-03  1.8178e-03  7.7067e-04  0:01:27 1852
  2568  7.7855e-03  2.0600e-03  1.2996e-03  7.7248e-03  1.8015e-03  7.6072e-04  0:01:10 1851
  2569  7.7160e-03  2.0503e-03  1.3007e-03  7.6586e-03  1.7849e-03  7.5137e-04  0:00:56 1850
  2570  7.6514e-03  2.0406e-03  1.3045e-03  7.5970e-03  1.7680e-03  7.4271e-04  0:06:54 1849
  2571  7.5946e-03  2.0309e-03  1.3115e-03  7.5428e-03  1.7516e-03  7.3429e-04  0:05:31 1848
  2572  7.5444e-03  2.0217e-03  1.3207e-03  7.4946e-03  1.7367e-03  7.2628e-04  0:04:25 1847

  iter  continuity  x-velocity  y-velocity      energy           k       omega     time/iter
  2573  7.5000e-03  2.0137e-03  1.3328e-03  7.4518e-03  1.7235e-03  7.1865e-04  0:03:32 1846
  2574  7.4601e-03  2.0060e-03  1.3471e-03  7.4128e-03  1.7110e-03  7.1201e-04  0:02:49 1845
  2575  7.4221e-03  1.9970e-03  1.3627e-03  7.3752e-03  1.6993e-03  7.0488e-04  0:02:15 1844
  2576  7.3865e-03  1.9877e-03  1.3792e-03  7.3394e-03  1.6882e-03  6.9827e-04  0:01:48 1843
  2577  7.3580e-03  1.9789e-03  1.3975e-03  7.3103e-03  1.6780e-03  6.9276e-04  0:01:27 1842
  2578  7.3337e-03  1.9680e-03  1.4167e-03  7.2848e-03  1.6685e-03  6.8747e-04  0:01:09 1841
  2579  7.3101e-03  1.9564e-03  1.4364e-03  7.2596e-03  1.6591e-03  6.8257e-04  0:00:55 1840
  2580  7.2850e-03  1.9439e-03  1.4556e-03  7.2325e-03  1.6503e-03  6.7733e-04  0:06:52 1839
  2581  7.2564e-03  1.9302e-03  1.4741e-03  7.2015e-03  1.6423e-03  6.7213e-04  0:05:29 1838
  2582  7.2260e-03  1.9154e-03  1.4913e-03  7.1686e-03  1.6359e-03  6.6761e-04  0:04:23 1837
  2583  7.1956e-03  1.9000e-03  1.5078e-03  7.1353e-03  1.6308e-03  6.6237e-04  0:03:31 1836

  iter  continuity  x-velocity  y-velocity      energy           k       omega     time/iter
  2584  7.1629e-03  1.8843e-03  1.5233e-03  7.0996e-03  1.6257e-03  6.5755e-04  0:02:48 1835
  2585  7.1284e-03  1.8679e-03  1.5364e-03  7.0620e-03  1.6211e-03  6.5254e-04  0:02:15 1834
  2586  7.0928e-03  1.8509e-03  1.5454e-03  7.0232e-03  1.6167e-03  6.4742e-04  0:01:48 1833
  2587  7.0574e-03  1.8344e-03  1.5534e-03  6.9847e-03  1.6136e-03  6.4063e-04  0:01:26 1832
  2588  7.0223e-03  1.8178e-03  1.5604e-03  6.9466e-03  1.6123e-03  6.3451e-04  0:01:09 1831
  2589  6.9872e-03  1.8002e-03  1.5649e-03  6.9086e-03  1.6114e-03  6.2989e-04  0:00:55 1830
  2590  6.9537e-03  1.7829e-03  1.5664e-03  6.8722e-03  1.6103e-03  6.2485e-04  0:06:50 1829
  2591  6.9226e-03  1.7656e-03  1.5650e-03  6.8386e-03  1.6094e-03  6.1984e-04  0:05:28 1828
  2592  6.8957e-03  1.7487e-03  1.5616e-03  6.8093e-03  1.6092e-03  6.1505e-04  0:04:22 1827
  2593  6.8737e-03  1.7309e-03  1.5555e-03  6.7853e-03  1.6097e-03  6.1061e-04  0:03:29 1826
  2594  6.8594e-03  1.7130e-03  1.5479e-03  6.7693e-03  1.6109e-03  6.0665e-04  0:02:47 1825

  iter  continuity  x-velocity  y-velocity      energy           k       omega     time/iter
  2595  6.8539e-03  1.6950e-03  1.5373e-03  6.7624e-03  1.6129e-03  6.0303e-04  0:02:14 1824
  2596  6.8571e-03  1.6767e-03  1.5228e-03  6.7647e-03  1.6148e-03  5.9955e-04  0:01:47 1823
  2597  6.8729e-03  1.6577e-03  1.5068e-03  6.7798e-03  1.6170e-03  5.9618e-04  0:01:26 1822
  2598  6.9001e-03  1.6372e-03  1.4911e-03  6.8068e-03  1.6194e-03  5.9295e-04  0:01:08 1821
  2599  6.9385e-03  1.6159e-03  1.4732e-03  6.8452e-03  1.6218e-03  5.8977e-04  0:06:59 1820
  2600  6.9873e-03  1.5939e-03  1.4533e-03  6.8944e-03  1.6240e-03  5.8641e-04  0:05:35 1819
  2601  7.0471e-03  1.5730e-03  1.4318e-03  6.9548e-03  1.6259e-03  5.8138e-04  0:04:28 1818
  2602  7.1169e-03  1.5533e-03  1.4082e-03  7.0254e-03  1.6278e-03  5.7767e-04  0:03:34 1817
  2603  7.1951e-03  1.5338e-03  1.3834e-03  7.1047e-03  1.6298e-03  5.7455e-04  0:02:51 1816
  2604  7.2793e-03  1.5153e-03  1.3579e-03  7.1902e-03  1.6317e-03  5.7023e-04  0:02:17 1815
  2605  7.3676e-03  1.4975e-03  1.3323e-03  7.2799e-03  1.6332e-03  5.6619e-04  0:13:55 1814

  iter  continuity  x-velocity  y-velocity      energy           k       omega     time/iter
  2606  7.4569e-03  1.4807e-03  1.3052e-03  7.3708e-03  1.6346e-03  5.6251e-04  0:11:08 1813
  2607  7.5447e-03  1.4644e-03  1.2785e-03  7.4601e-03  1.6362e-03  5.5852e-04  0:08:54 1812
  2608  7.6270e-03  1.4482e-03  1.2524e-03  7.5441e-03  1.6373e-03  5.5417e-04  0:07:07 1811
  2609  7.7009e-03  1.4335e-03  1.2269e-03  7.6197e-03  1.6380e-03  5.4957e-04  0:11:43 1810
  2610  7.7639e-03  1.4198e-03  1.2020e-03  7.6844e-03  1.6382e-03  5.4496e-04  0:09:22 1809
  2611  7.8094e-03  1.4069e-03  1.1775e-03  7.7317e-03  1.6379e-03  5.4068e-04  0:07:30 1808
  2612  7.8340e-03  1.3881e-03  1.1549e-03  7.7580e-03  1.6374e-03  5.3648e-04  0:05:59 1807
  2613  7.8367e-03  1.3700e-03  1.1342e-03  7.7624e-03  1.6358e-03  5.3178e-04  0:04:47 1806
  2614  7.8171e-03  1.3534e-03  1.1154e-03  7.7445e-03  1.6338e-03  5.2769e-04  0:03:50 1805
  2615  7.7742e-03  1.3389e-03  1.0983e-03  7.7035e-03  1.6309e-03  5.2354e-04  0:03:04 1804
  2616  7.7079e-03  1.3230e-03  1.0830e-03  7.6391e-03  1.6274e-03  5.1885e-04  0:02:27 1803

  iter  continuity  x-velocity  y-velocity      energy           k       omega     time/iter
  2617  7.6184e-03  1.3068e-03  1.0702e-03  7.5515e-03  1.6229e-03  5.1499e-04  0:01:57 1802
  2618  7.5076e-03  1.2924e-03  1.0597e-03  7.4428e-03  1.6175e-03  5.1041e-04  0:01:34 1801
  2619  7.3767e-03  1.2804e-03  1.0517e-03  7.3138e-03  1.6112e-03  5.0632e-04  0:07:15 1800
  2620  7.2239e-03  1.2707e-03  1.0457e-03  7.1631e-03  1.6042e-03  5.0289e-04  0:05:48 1799
  2621  7.0475e-03  1.2610e-03  1.0423e-03  6.9888e-03  1.5962e-03  4.9935e-04  0:04:38 1798
  2622  6.8440e-03  1.2486e-03  1.0409e-03  6.7874e-03  1.5878e-03  4.9623e-04  0:03:42 1797
  2623  6.6240e-03  1.2368e-03  1.0413e-03  6.5695e-03  1.5788e-03  4.9297e-04  0:02:58 1796
  2624  6.3925e-03  1.2275e-03  1.0429e-03  6.3399e-03  1.5697e-03  4.8987e-04  0:02:22 1795
  2625  6.1514e-03  1.2194e-03  1.0454e-03  6.1007e-03  1.5600e-03  4.8644e-04  0:01:54 1794
  2626  5.9031e-03  1.2128e-03  1.0484e-03  5.8543e-03  1.5500e-03  4.8293e-04  0:01:31 1793
  2627  5.6532e-03  1.2078e-03  1.0516e-03  5.6062e-03  1.5400e-03  4.7947e-04  0:01:13 1792

  iter  continuity  x-velocity  y-velocity      energy           k       omega     time/iter
  2628  5.4067e-03  1.2015e-03  1.0551e-03  5.3613e-03  1.5298e-03  4.7655e-04  0:00:58 1791
  2629  5.1678e-03  1.1948e-03  1.0583e-03  5.1239e-03  1.5191e-03  4.7352e-04  0:06:44 1790
  2630  4.9407e-03  1.1883e-03  1.0607e-03  4.8982e-03  1.5080e-03  4.7064e-04  0:05:23 1789
  2631  4.7298e-03  1.1827e-03  1.0621e-03  4.6885e-03  1.4963e-03  4.6745e-04  0:04:19 1788
  2632  4.5420e-03  1.1775e-03  1.0625e-03  4.5018e-03  1.4843e-03  4.6297e-04  0:03:27 1787
  2633  4.3827e-03  1.1728e-03  1.0617e-03  4.3432e-03  1.4718e-03  4.6040e-04  0:02:45 1786
  2634  4.2551e-03  1.1698e-03  1.0596e-03  4.2163e-03  1.4592e-03  4.5770e-04  0:02:12 1785
  2635  4.1585e-03  1.1673e-03  1.0561e-03  4.1202e-03  1.4463e-03  4.5429e-04  0:01:46 1784
  2636  4.0919e-03  1.1625e-03  1.0508e-03  4.0538e-03  1.4335e-03  4.5118e-04  0:01:24 1783
  2637  4.0522e-03  1.1588e-03  1.0442e-03  4.0142e-03  1.4206e-03  4.4865e-04  0:07:04 1782
  2638  4.0463e-03  1.1553e-03  1.0361e-03  4.0082e-03  1.4077e-03  4.4664e-04  0:05:39 1781

  iter  continuity  x-velocity  y-velocity      energy           k       omega     time/iter
  2639  4.0670e-03  1.1504e-03  1.0267e-03  4.0286e-03  1.3949e-03  4.4466e-04  0:04:31 1780
  2640  4.1070e-03  1.1452e-03  1.0160e-03  4.0681e-03  1.3820e-03  4.4217e-04  0:03:37 1779
  2641  4.1598e-03  1.1400e-03  1.0037e-03  4.1202e-03  1.3693e-03  4.4020e-04  0:02:53 1778
  2642  4.2204e-03  1.1358e-03  9.9037e-04  4.1801e-03  1.3570e-03  4.3857e-04  0:02:19 1777
  2643  4.2829e-03  1.1309e-03  9.7617e-04  4.2417e-03  1.3451e-03  4.3673e-04  0:01:51 1776
  2644  4.3427e-03  1.1257e-03  9.6107e-04  4.3004e-03  1.3337e-03  4.3514e-04  0:01:29 1775
  2645  4.3972e-03  1.1225e-03  9.4818e-04  4.3538e-03  1.3223e-03  4.3417e-04  0:07:06 1774
  2646  4.4424e-03  1.1219e-03  9.3355e-04  4.3979e-03  1.3110e-03  4.3352e-04  0:05:40 1773
  2647  4.4758e-03  1.1227e-03  9.1640e-04  4.4303e-03  1.3004e-03  4.3293e-04  0:04:32 1772
  2648  4.4953e-03  1.1242e-03  8.9768e-04  4.4488e-03  1.2904e-03  4.3250e-04  0:03:38 1771
  2649  4.4996e-03  1.1286e-03  8.7860e-04  4.4521e-03  1.2808e-03  4.3224e-04  0:02:54 1770

  iter  continuity  x-velocity  y-velocity      energy           k       omega     time/iter
  2650  4.4865e-03  1.1314e-03  8.5955e-04  4.4381e-03  1.2716e-03  4.3220e-04  0:02:19 1769
  2651  4.4565e-03  1.1311e-03  8.4040e-04  4.4074e-03  1.2628e-03  4.3204e-04  0:01:51 1768
  2652  4.4118e-03  1.1309e-03  8.2140e-04  4.3621e-03  1.2543e-03  4.3175e-04  0:01:29 1767
  2653  4.3535e-03  1.1301e-03  8.0272e-04  4.3032e-03  1.2458e-03  4.3156e-04  0:07:04 1766
  2654  4.2824e-03  1.1256e-03  7.8443e-04  4.2318e-03  1.2377e-03  4.3118e-04  0:05:39 1765
  2655  4.1995e-03  1.1226e-03  7.6665e-04  4.1487e-03  1.2296e-03  4.3125e-04  0:04:31 1764
  2656  4.1063e-03  1.1183e-03  7.4906e-04  4.0554e-03  1.2220e-03  4.3132e-04  0:03:37 1763
  2657  4.0062e-03  1.1189e-03  7.3205e-04  3.9553e-03  1.2145e-03  4.3099e-04  0:02:53 1762
  2658  3.9009e-03  1.1173e-03  7.1564e-04  3.8502e-03  1.2067e-03  4.3041e-04  0:02:19 1761
  2659  3.7939e-03  1.1186e-03  6.9982e-04  3.7435e-03  1.1990e-03  4.2987e-04  0:01:51 1760
  2660  3.6878e-03  1.1197e-03  6.8687e-04  3.6377e-03  1.1914e-03  4.2919e-04  0:01:29 1759

  iter  continuity  x-velocity  y-velocity      energy           k       omega     time/iter
  2661  3.5844e-03  1.1202e-03  6.7385e-04  3.5348e-03  1.1838e-03  4.2834e-04  0:01:11 1758
  2662  3.4875e-03  1.1236e-03  6.6231e-04  3.4384e-03  1.1769e-03  4.2701e-04  0:00:57 1757
  2663  3.3995e-03  1.1268e-03  6.5122e-04  3.3510e-03  1.1700e-03  4.2683e-04  0:06:36 1756
  2664  3.3217e-03  1.1251e-03  6.4021e-04  3.2738e-03  1.1640e-03  4.2635e-04  0:05:17 1755
  2665  3.2561e-03  1.1173e-03  6.2984e-04  3.2089e-03  1.1582e-03  4.2495e-04  0:04:13 1754
  2666  3.2037e-03  1.1088e-03  6.2024e-04  3.1572e-03  1.1531e-03  4.2413e-04  0:03:23 1753
  2667  3.1657e-03  1.1025e-03  6.1163e-04  3.1199e-03  1.1484e-03  4.2344e-04  0:02:42 1752
  2668  3.1414e-03  1.0996e-03  6.0401e-04  3.0964e-03  1.1444e-03  4.2224e-04  0:02:10 1751
  2669  3.1306e-03  1.0986e-03  5.9714e-04  3.0864e-03  1.1407e-03  4.2159e-04  0:01:44 1750
  2670  3.1312e-03  1.0984e-03  5.9094e-04  3.0879e-03  1.1371e-03  4.2060e-04  0:01:23 1749
  2671  3.1413e-03  1.0946e-03  5.8554e-04  3.0986e-03  1.1337e-03  4.1961e-04  0:01:06 1748

  iter  continuity  x-velocity  y-velocity      energy           k       omega     time/iter
  2672  3.1589e-03  1.0913e-03  5.8096e-04  3.1170e-03  1.1304e-03  4.1859e-04  0:00:53 1747
  2673  3.1814e-03  1.0882e-03  5.7695e-04  3.1401e-03  1.1270e-03  4.1766e-04  0:00:42 1746
  2674  3.2077e-03  1.0829e-03  5.7305e-04  3.1670e-03  1.1241e-03  4.1687e-04  0:06:23 1745
  2675  3.2355e-03  1.0766e-03  5.6937e-04  3.1953e-03  1.1211e-03  4.1615e-04  0:05:06 1744
  2676  3.2630e-03  1.0682e-03  5.6620e-04  3.2233e-03  1.1186e-03  4.1544e-04  0:04:05 1743
  2677  3.2896e-03  1.0604e-03  5.6345e-04  3.2502e-03  1.1163e-03  4.1498e-04  0:03:16 1742
  2678  3.3133e-03  1.0541e-03  5.6096e-04  3.2743e-03  1.1142e-03  4.1482e-04  0:02:36 1741
  2679  3.3334e-03  1.0494e-03  5.5860e-04  3.2949e-03  1.1130e-03  4.1469e-04  0:02:05 1740
  2680  3.3494e-03  1.0446e-03  5.5620e-04  3.3112e-03  1.1123e-03  4.1478e-04  0:01:40 1739
  2681  3.3606e-03  1.0394e-03  5.5421e-04  3.3228e-03  1.1122e-03  4.1490e-04  0:01:20 1738
  2682  3.3671e-03  1.0335e-03  5.5233e-04  3.3296e-03  1.1126e-03  4.1517e-04  0:01:04 1737

  iter  continuity  x-velocity  y-velocity      energy           k       omega     time/iter
  2683  3.3692e-03  1.0263e-03  5.5015e-04  3.3319e-03  1.1134e-03  4.1544e-04  0:06:38 1736
  2684  3.3674e-03  1.0192e-03  5.4729e-04  3.3304e-03  1.1147e-03  4.1571e-04  0:05:18 1735
  2685  3.3625e-03  1.0121e-03  5.4395e-04  3.3257e-03  1.1162e-03  4.1566e-04  0:04:15 1734
  2686  3.3556e-03  1.0066e-03  5.4056e-04  3.3189e-03  1.1180e-03  4.1580e-04  0:03:24 1733
  2687  3.3467e-03  1.0012e-03  5.3724e-04  3.3101e-03  1.1199e-03  4.1634e-04  0:02:43 1732
  2688  3.3359e-03  9.9438e-04  5.3396e-04  3.2994e-03  1.1218e-03  4.1647e-04  0:02:10 1731
  2689  3.3245e-03  9.8812e-04  5.3041e-04  3.2882e-03  1.1241e-03  4.1648e-04  0:01:44 1730
  2690  3.3132e-03  9.8212e-04  5.2671e-04  3.2769e-03  1.1259e-03  4.1620e-04  0:01:23 1729
  2691  3.3031e-03  9.7615e-04  5.2224e-04  3.2668e-03  1.1278e-03  4.1579e-04  0:01:07 1728
  2692  3.2947e-03  9.7052e-04  5.1759e-04  3.2585e-03  1.1294e-03  4.1535e-04  0:00:53 1727
  2693  3.2884e-03  9.6526e-04  5.1258e-04  3.2521e-03  1.1309e-03  4.1482e-04  0:06:28 1726

  iter  continuity  x-velocity  y-velocity      energy           k       omega     time/iter
  2694  3.2848e-03  9.5958e-04  5.0734e-04  3.2484e-03  1.1320e-03  4.1410e-04  0:05:10 1725
  2695  3.2845e-03  9.5500e-04  5.0199e-04  3.2480e-03  1.1324e-03  4.1298e-04  0:04:08 1724
  2696  3.2877e-03  9.4957e-04  4.9657e-04  3.2511e-03  1.1329e-03  4.1202e-04  0:03:18 1723
  2697  3.2944e-03  9.4374e-04  4.9112e-04  3.2576e-03  1.1335e-03  4.1118e-04  0:02:38 1722
  2698  3.3047e-03  9.3932e-04  4.8568e-04  3.2677e-03  1.1339e-03  4.0991e-04  0:02:07 1721
  2699  3.3185e-03  9.3492e-04  4.7960e-04  3.2813e-03  1.1342e-03  4.0849e-04  0:01:41 1720
  2700  3.3357e-03  9.3105e-04  4.7338e-04  3.2982e-03  1.1342e-03  4.0703e-04  0:01:21 1719
  2701  3.3564e-03  9.3113e-04  4.6731e-04  3.3186e-03  1.1339e-03  4.0546e-04  0:01:05 1718
  2702  3.3800e-03  9.2994e-04  4.6138e-04  3.3420e-03  1.1337e-03  4.0376e-04  0:00:52 1717
  2703  3.4057e-03  9.2282e-04  4.5530e-04  3.3675e-03  1.1334e-03  4.0167e-04  0:06:25 1716
  2704  3.4334e-03  9.1457e-04  4.4936e-04  3.3951e-03  1.1329e-03  3.9924e-04  0:05:07 1715

  iter  continuity  x-velocity  y-velocity      energy           k       omega     time/iter
  2705  3.4628e-03  9.0692e-04  4.4360e-04  3.4243e-03  1.1321e-03  3.9665e-04  0:04:06 1714
  2706  3.4931e-03  8.9852e-04  4.3806e-04  3.4544e-03  1.1312e-03  3.9449e-04  0:03:17 1713
  2707  3.5235e-03  8.8863e-04  4.3217e-04  3.4846e-03  1.1300e-03  3.9219e-04  0:02:37 1712
  2708  3.5533e-03  8.7856e-04  4.2647e-04  3.5143e-03  1.1285e-03  3.8951e-04  0:02:06 1711
  2709  3.5815e-03  8.7095e-04  4.2100e-04  3.5423e-03  1.1268e-03  3.8685e-04  0:01:40 1710
  2710  3.6074e-03  8.6429e-04  4.1539e-04  3.5681e-03  1.1248e-03  3.8391e-04  0:01:20 1709
  2711  3.6304e-03  8.5797e-04  4.1011e-04  3.5909e-03  1.1226e-03  3.8072e-04  0:01:04 1708
  2712  3.6493e-03  8.4864e-04  4.0488e-04  3.6096e-03  1.1201e-03  3.7750e-04  0:00:51 1707
  2713  3.6632e-03  8.3882e-04  4.0017e-04  3.6234e-03  1.1172e-03  3.7396e-04  0:06:22 1706
  2714  3.6713e-03  8.3046e-04  3.9559e-04  3.6315e-03  1.1141e-03  3.6992e-04  0:05:06 1705
  2715  3.6734e-03  8.2531e-04  3.9109e-04  3.6334e-03  1.1107e-03  3.6576e-04  0:04:04 1704

  iter  continuity  x-velocity  y-velocity      energy           k       omega     time/iter
  2716  3.6686e-03  8.2288e-04  3.8708e-04  3.6287e-03  1.1071e-03  3.6156e-04  0:03:15 1703
  2717  3.6564e-03  8.2251e-04  3.8347e-04  3.6165e-03  1.1031e-03  3.5737e-04  0:02:36 1702
  2718  3.6361e-03  8.1835e-04  3.8055e-04  3.5961e-03  1.0986e-03  3.5344e-04  0:02:05 1701
  2719  3.6078e-03  8.1623e-04  3.7853e-04  3.5678e-03  1.0937e-03  3.4952e-04  0:01:40 1700
  2720  3.5715e-03  8.1607e-04  3.7705e-04  3.5316e-03  1.0885e-03  3.4562e-04  0:01:20 1699
  2721  3.5271e-03  8.1239e-04  3.7610e-04  3.4871e-03  1.0829e-03  3.4178e-04  0:01:04 1698
  2722  3.4745e-03  8.0925e-04  3.7540e-04  3.4345e-03  1.0770e-03  3.3806e-04  0:06:30 1697
  2723  3.4139e-03  8.0621e-04  3.7545e-04  3.3738e-03  1.0706e-03  3.3445e-04  0:05:12 1696
  2724  3.3470e-03  8.0669e-04  3.7578e-04  3.3068e-03  1.0640e-03  3.3102e-04  0:04:10 1695
  2725  3.2744e-03  8.1042e-04  3.7645e-04  3.2340e-03  1.0571e-03  3.2773e-04  0:03:20 1694
  2726  3.1969e-03  8.1701e-04  3.7729e-04  3.1564e-03  1.0501e-03  3.2456e-04  0:02:40 1693

  iter  continuity  x-velocity  y-velocity      energy           k       omega     time/iter
  2727  3.1150e-03  8.2268e-04  3.7827e-04  3.0744e-03  1.0432e-03  3.2152e-04  0:02:08 1692
  2728  3.0304e-03  8.2731e-04  3.7972e-04  2.9894e-03  1.0366e-03  3.1863e-04  0:01:42 1691
  2729  2.9434e-03  8.2186e-04  3.8116e-04  2.9022e-03  1.0302e-03  3.1586e-04  0:01:22 1690
  2730  2.8563e-03  8.2045e-04  3.8234e-04  2.8148e-03  1.0241e-03  3.1330e-04  0:01:05 1689
  2731  2.7706e-03  8.2552e-04  3.8300e-04  2.7289e-03  1.0183e-03  3.1099e-04  0:00:52 1688
  2732  2.6880e-03  8.3170e-04  3.8359e-04  2.6460e-03  1.0127e-03  3.0887e-04  0:06:19 1687
  2733  2.6105e-03  8.4352e-04  3.8429e-04  2.5683e-03  1.0072e-03  3.0701e-04  0:05:03 1686
  2734  2.5388e-03  8.5705e-04  3.8537e-04  2.4963e-03  1.0017e-03  3.0515e-04  0:04:02 1685
  2735  2.4742e-03  8.6606e-04  3.8656e-04  2.4314e-03  9.9633e-04  3.0399e-04  0:03:14 1684
  2736  2.4175e-03  8.6974e-04  3.8748e-04  2.3745e-03  9.9127e-04  3.0308e-04  0:02:35 1683
  2737  2.3694e-03  8.6878e-04  3.8766e-04  2.3261e-03  9.8587e-04  3.0260e-04  0:02:04 1682

  iter  continuity  x-velocity  y-velocity      energy           k       omega     time/iter
  2738  2.3316e-03  8.7254e-04  3.8733e-04  2.2879e-03  9.8020e-04  3.0217e-04  0:01:39 1681
  2739  2.3032e-03  8.7302e-04  3.8691e-04  2.2593e-03  9.7421e-04  3.0238e-04  0:01:19 1680
  2740  2.2834e-03  8.7067e-04  3.8606e-04  2.2394e-03  9.6800e-04  3.0268e-04  0:01:03 1679
  2741  2.2727e-03  8.7636e-04  3.8476e-04  2.2287e-03  9.6147e-04  3.0279e-04  0:00:51 1678
  2742  2.2696e-03  8.8424e-04  3.8310e-04  2.2256e-03  9.5457e-04  3.0312e-04  0:00:40 1677
  2743  2.2735e-03  8.9169e-04  3.8128e-04  2.2295e-03  9.4739e-04  3.0391e-04  0:06:08 1676
  2744  2.2825e-03  8.9785e-04  3.7983e-04  2.2386e-03  9.3988e-04  3.0493e-04  0:04:54 1675
  2745  2.2946e-03  8.9927e-04  3.7875e-04  2.2508e-03  9.3202e-04  3.0594e-04  0:03:55 1674
  2746  2.3112e-03  9.0779e-04  3.7913e-04  2.2673e-03  9.2376e-04  3.0687e-04  0:03:08 1673
  2747  2.3283e-03  9.0263e-04  3.7966e-04  2.2844e-03  9.1520e-04  3.0841e-04  0:02:30 1672
  2748  2.3479e-03  9.1465e-04  3.7883e-04  2.3039e-03  9.0638e-04  3.1009e-04  0:02:00 1671

  iter  continuity  x-velocity  y-velocity      energy           k       omega     time/iter
  2749  2.3655e-03  9.0805e-04  3.7764e-04  2.3212e-03  8.9722e-04  3.1193e-04  0:01:36 1670
  2750  2.3824e-03  9.1024e-04  3.7559e-04  2.3377e-03  8.8786e-04  3.1348e-04  0:01:17 1669
  2751  2.3986e-03  9.1939e-04  3.7313e-04  2.3536e-03  8.7844e-04  3.1519e-04  0:01:01 1668
  2752  2.4129e-03  9.2918e-04  3.7140e-04  2.3674e-03  8.6905e-04  3.1649e-04  0:00:49 1667
  2753  2.4251e-03  9.4370e-04  3.7055e-04  2.3791e-03  8.5964e-04  3.1815e-04  0:06:12 1666
  2754  2.4355e-03  9.5874e-04  3.7044e-04  2.3887e-03  8.5019e-04  3.2033e-04  0:04:58 1665
  2755  2.4454e-03  9.8359e-04  3.6929e-04  2.3975e-03  8.4101e-04  3.2265e-04  0:03:58 1664
  2756  2.4529e-03  1.0077e-03  3.6953e-04  2.4040e-03  8.3210e-04  3.2476e-04  0:03:10 1663
  2757  2.4560e-03  1.0035e-03  3.7027e-04  2.4062e-03  8.2320e-04  3.2672e-04  0:02:32 1662
  2758  2.4608e-03  1.0133e-03  3.7084e-04  2.4100e-03  8.1423e-04  3.2847e-04  0:02:02 1661
  2759  2.4659e-03  1.0278e-03  3.7163e-04  2.4139e-03  8.0533e-04  3.2971e-04  0:01:37 1660

  iter  continuity  x-velocity  y-velocity      energy           k       omega     time/iter
  2760  2.4716e-03  1.0359e-03  3.7269e-04  2.4185e-03  7.9633e-04  3.3119e-04  0:01:18 1659
  2761  2.4771e-03  1.0318e-03  3.7229e-04  2.4227e-03  7.8725e-04  3.3286e-04  0:01:02 1658
  2762  2.4870e-03  1.0516e-03  3.7151e-04  2.4309e-03  7.7811e-04  3.3442e-04  0:00:50 1657
  2763  2.4984e-03  1.0759e-03  3.7188e-04  2.4411e-03  7.6892e-04  3.3544e-04  0:06:11 1656
  2764  2.5064e-03  1.0526e-03  3.6984e-04  2.4481e-03  7.5974e-04  3.3674e-04  0:04:57 1655
  2765  2.5175e-03  1.0178e-03  3.6887e-04  2.4587e-03  7.5059e-04  3.3813e-04  0:03:57 1654
  2766  2.5349e-03  1.0116e-03  3.6806e-04  2.4756e-03  7.4144e-04  3.3940e-04  0:03:10 1653
  2767  2.5575e-03  1.0145e-03  3.6516e-04  2.4974e-03  7.3243e-04  3.4061e-04  0:02:32 1652
  2768  2.5829e-03  1.0022e-03  3.6305e-04  2.5218e-03  7.2366e-04  3.4160e-04  0:02:01 1651
  2769  2.6133e-03  9.9509e-04  3.6103e-04  2.5512e-03  7.1530e-04  3.4251e-04  0:01:37 1650
  2770  2.6477e-03  9.9072e-04  3.5855e-04  2.5845e-03  7.0756e-04  3.4320e-04  0:01:17 1649

  iter  continuity  x-velocity  y-velocity      energy           k       omega     time/iter
  2771  2.6842e-03  9.8387e-04  3.5673e-04  2.6202e-03  7.0069e-04  3.4387e-04  0:01:02 1648
  2772  2.7247e-03  9.8505e-04  3.5483e-04  2.6600e-03  6.9440e-04  3.4437e-04  0:00:50 1647
  2773  2.7681e-03  9.8894e-04  3.5300e-04  2.7025e-03  6.8854e-04  3.4471e-04  0:00:40 1646
  2774  2.8132e-03  9.9038e-04  3.4995e-04  2.7466e-03  6.8304e-04  3.4487e-04  0:06:01 1645
  2775  2.8599e-03  9.9114e-04  3.4790e-04  2.7924e-03  6.7781e-04  3.4477e-04  0:04:48 1644
  2776  2.9079e-03  9.9481e-04  3.4676e-04  2.8394e-03  6.7307e-04  3.4442e-04  0:03:51 1643
  2777  2.9559e-03  1.0027e-03  3.4567e-04  2.8864e-03  6.6870e-04  3.4431e-04  0:03:04 1642
  2778  3.0029e-03  1.0075e-03  3.4498e-04  2.9327e-03  6.6491e-04  3.4420e-04  0:02:27 1641
  2779  3.0499e-03  1.0149e-03  3.4555e-04  2.9788e-03  6.6157e-04  3.4429e-04  0:01:58 1640
  2780  3.0950e-03  1.0135e-03  3.4433e-04  3.0232e-03  6.5883e-04  3.4426e-04  0:01:34 1639
  2781  3.1382e-03  1.0082e-03  3.4369e-04  3.0656e-03  6.5658e-04  3.4406e-04  0:06:43 1638

  iter  continuity  x-velocity  y-velocity      energy           k       omega     time/iter
  2782  3.1795e-03  1.0099e-03  3.4408e-04  3.1061e-03  6.5479e-04  3.4380e-04  0:05:22 1637
  2783  3.2186e-03  1.0184e-03  3.4342e-04  3.1446e-03  6.5340e-04  3.4319e-04  0:04:18 1636
  2784  3.2544e-03  1.0220e-03  3.4401e-04  3.1798e-03  6.5233e-04  3.4280e-04  0:03:26 1635
  2785  3.2881e-03  1.0212e-03  3.4392e-04  3.2127e-03  6.5154e-04  3.4292e-04  0:02:45 1634
  2786  3.3204e-03  1.0322e-03  3.4558e-04  3.2442e-03  6.5101e-04  3.4290e-04  0:02:12 1633
  2787  3.3504e-03  1.0491e-03  3.4709e-04  3.2733e-03  6.5075e-04  3.4255e-04  0:01:45 1632
  2788  3.3763e-03  1.0592e-03  3.4818e-04  3.2983e-03  6.5074e-04  3.4220e-04  0:01:24 1631
  2789  3.4007e-03  1.0742e-03  3.5059e-04  3.3217e-03  6.5101e-04  3.4179e-04  0:01:07 1630
  2790  3.4238e-03  1.0837e-03  3.5252e-04  3.3435e-03  6.5139e-04  3.4136e-04  0:00:54 1629
  2791  3.4459e-03  1.1101e-03  3.5233e-04  3.3637e-03  6.5190e-04  3.4079e-04  0:06:09 1628
  2792  3.4606e-03  1.1213e-03  3.5167e-04  3.3770e-03  6.5251e-04  3.3997e-04  0:04:55 1627

  iter  continuity  x-velocity  y-velocity      energy           k       omega     time/iter
  2793  3.4656e-03  1.0705e-03  3.4992e-04  3.3814e-03  6.5326e-04  3.3888e-04  0:03:56 1626
  2794  3.4708e-03  1.0226e-03  3.4816e-04  3.3862e-03  6.5404e-04  3.3769e-04  0:03:08 1625
  2795  3.4764e-03  1.0047e-03  3.4703e-04  3.3915e-03  6.5481e-04  3.3641e-04  0:02:31 1624
  2796  3.4804e-03  9.9176e-04  3.4807e-04  3.3947e-03  6.5572e-04  3.3474e-04  0:02:00 1623
  2797  3.4826e-03  9.7252e-04  3.4750e-04  3.3959e-03  6.5664e-04  3.3317e-04  0:01:36 1622
  2798  3.4838e-03  9.5894e-04  3.4913e-04  3.3960e-03  6.5766e-04  3.3195e-04  0:01:17 1621
  2799  3.4847e-03  9.5098e-04  3.4999e-04  3.3959e-03  6.5864e-04  3.3067e-04  0:01:02 1620
  2800  3.4852e-03  9.3841e-04  3.5127e-04  3.3953e-03  6.5964e-04  3.2926e-04  0:00:49 1619
  2801  3.4847e-03  9.3179e-04  3.5339e-04  3.3939e-03  6.6058e-04  3.2782e-04  0:06:03 1618
  2802  3.4836e-03  9.2367e-04  3.5555e-04  3.3921e-03  6.6146e-04  3.2645e-04  0:04:50 1617
  2803  3.4833e-03  9.2073e-04  3.5743e-04  3.3909e-03  6.6236e-04  3.2500e-04  0:03:52 1616

  iter  continuity  x-velocity  y-velocity      energy           k       omega     time/iter
  2804  3.4834e-03  9.2048e-04  3.5839e-04  3.3901e-03  6.6341e-04  3.2358e-04  0:03:05 1615
  2805  3.4850e-03  9.2705e-04  3.6103e-04  3.3907e-03  6.6460e-04  3.2214e-04  0:02:28 1614
  2806  3.4858e-03  9.3333e-04  3.6358e-04  3.3909e-03  6.6575e-04  3.2083e-04  0:01:59 1613
  2807  3.4869e-03  9.3010e-04  3.6378e-04  3.3916e-03  6.6681e-04  3.1964e-04  0:01:35 1612
  2808  3.4883e-03  9.3048e-04  3.6544e-04  3.3925e-03  6.6782e-04  3.1852e-04  0:01:16 1611
  2809  3.4906e-03  9.3914e-04  3.6762e-04  3.3943e-03  6.6893e-04  3.1750e-04  0:01:01 1610
  2810  3.4925e-03  9.4425e-04  3.6911e-04  3.3962e-03  6.7004e-04  3.1655e-04  0:00:48 1609
  2811  3.4931e-03  9.2884e-04  3.7015e-04  3.3968e-03  6.7111e-04  3.1566e-04  0:06:00 1608
  2812  3.4968e-03  9.2670e-04  3.7249e-04  3.4005e-03  6.7224e-04  3.1471e-04  0:04:48 1607
  2813  3.5021e-03  9.3648e-04  3.7611e-04  3.4060e-03  6.7346e-04  3.1391e-04  0:03:50 1606
  2814  3.5099e-03  9.5982e-04  3.7891e-04  3.4137e-03  6.7472e-04  3.1312e-04  0:03:04 1605

  iter  continuity  x-velocity  y-velocity      energy           k       omega     time/iter
  2815  3.5158e-03  9.7330e-04  3.8021e-04  3.4198e-03  6.7615e-04  3.1224e-04  0:02:27 1604
  2816  3.5234e-03  9.8142e-04  3.8499e-04  3.4276e-03  6.7770e-04  3.1149e-04  0:01:58 1603
  2817  3.5363e-03  1.0118e-03  3.9102e-04  3.4400e-03  6.7922e-04  3.1108e-04  0:01:34 1602
  2818  3.5459e-03  1.0315e-03  3.9415e-04  3.4492e-03  6.8068e-04  3.1072e-04  0:01:15 1601
  2819  3.5563e-03  1.0436e-03  3.9630e-04  3.4597e-03  6.8207e-04  3.1039e-04  0:01:00 1600
  2820  3.5548e-03  9.6624e-04  3.9483e-04  3.4592e-03  6.8347e-04  3.1002e-04  0:06:08 1599
  2821  3.5587e-03  9.1891e-04  3.9057e-04  3.4640e-03  6.8478e-04  3.0963e-04  0:04:54 1598
  2822  3.5637e-03  9.0021e-04  3.8987e-04  3.4697e-03  6.8589e-04  3.0910e-04  0:03:55 1597
  2823  3.5689e-03  8.9568e-04  3.8927e-04  3.4754e-03  6.8681e-04  3.0831e-04  0:03:08 1596
  2824  3.5739e-03  8.9189e-04  3.8974e-04  3.4806e-03  6.8749e-04  3.0772e-04  0:02:30 1595
  2825  3.5782e-03  8.9400e-04  3.9181e-04  3.4851e-03  6.8794e-04  3.0723e-04  0:02:00 1594

  iter  continuity  x-velocity  y-velocity      energy           k       omega     time/iter
  2826  3.5820e-03  8.9105e-04  3.9407e-04  3.4890e-03  6.8817e-04  3.0679e-04  0:01:36 1593
  2827  3.5846e-03  8.9202e-04  3.9462e-04  3.4918e-03  6.8807e-04  3.0628e-04  0:01:17 1592
  2828  3.5859e-03  8.8898e-04  3.9588e-04  3.4933e-03  6.8782e-04  3.0591e-04  0:01:01 1591
  2829  3.5874e-03  8.9789e-04  3.9669e-04  3.4950e-03  6.8731e-04  3.0563e-04  0:06:07 1590
  2830  3.5882e-03  9.0414e-04  3.9599e-04  3.4960e-03  6.8670e-04  3.0534e-04  0:04:53 1589
  2831  3.5897e-03  9.1709e-04  3.9391e-04  3.4976e-03  6.8589e-04  3.0513e-04  0:03:55 1588
  2832  3.5923e-03  9.4786e-04  3.9450e-04  3.5002e-03  6.8489e-04  3.0482e-04  0:03:08 1587
  2833  3.5913e-03  9.6550e-04  3.9382e-04  3.4996e-03  6.8389e-04  3.0458e-04  0:02:30 1586
  2834  3.5905e-03  9.6717e-04  3.9327e-04  3.4991e-03  6.8280e-04  3.0441e-04  0:02:00 1585
  2835  3.5885e-03  9.7995e-04  3.9350e-04  3.4976e-03  6.8174e-04  3.0426e-04  0:01:36 1584
  2836  3.5826e-03  9.6106e-04  3.9341e-04  3.4922e-03  6.8075e-04  3.0422e-04  0:01:17 1583

  iter  continuity  x-velocity  y-velocity      energy           k       omega     time/iter
  2837  3.5787e-03  9.7116e-04  3.9166e-04  3.4886e-03  6.7975e-04  3.0412e-04  0:01:01 1582
  2838  3.5729e-03  9.9052e-04  3.8882e-04  3.4835e-03  6.7875e-04  3.0402e-04  0:00:49 1581
  2839  3.5659e-03  9.9550e-04  3.8581e-04  3.4769e-03  6.7772e-04  3.0369e-04  0:05:55 1580
  2840  3.5580e-03  9.9613e-04  3.8717e-04  3.4693e-03  6.7657e-04  3.0332e-04  0:04:44 1579
  2841  3.5477e-03  9.9903e-04  3.8965e-04  3.4594e-03  6.7540e-04  3.0285e-04  0:03:47 1578
  2842  3.5364e-03  1.0129e-03  3.9173e-04  3.4484e-03  6.7421e-04  3.0236e-04  0:03:02 1577
  2843  3.5216e-03  1.0065e-03  3.9084e-04  3.4338e-03  6.7317e-04  3.0188e-04  0:02:25 1576
  2844  3.5061e-03  1.0035e-03  3.8921e-04  3.4186e-03  6.7230e-04  3.0156e-04  0:01:56 1575
  2845  3.4903e-03  1.0135e-03  3.8908e-04  3.4027e-03  6.7139e-04  3.0113e-04  0:01:33 1574
  2846  3.4710e-03  9.8519e-04  3.8775e-04  3.3832e-03  6.7053e-04  3.0077e-04  0:01:14 1573
  2847  3.4522e-03  9.9511e-04  3.8831e-04  3.3641e-03  6.6982e-04  3.0041e-04  0:00:59 1572

  iter  continuity  x-velocity  y-velocity      energy           k       omega     time/iter
  2848  3.4297e-03  9.9206e-04  3.9197e-04  3.3414e-03  6.6924e-04  2.9987e-04  0:00:47 1571
  2849  3.3992e-03  9.4365e-04  3.8824e-04  3.3114e-03  6.6856e-04  2.9914e-04  0:05:52 1570
  2850  3.3714e-03  9.2787e-04  3.8275e-04  3.2840e-03  6.6785e-04  2.9821e-04  0:04:41 1569
  2851  3.3416e-03  9.1542e-04  3.7873e-04  3.2545e-03  6.6708e-04  2.9708e-04  0:03:45 1568
  2852  3.3114e-03  9.0454e-04  3.7561e-04  3.2245e-03  6.6623e-04  2.9602e-04  0:03:00 1567
  2853  3.2807e-03  8.8782e-04  3.7111e-04  3.1936e-03  6.6517e-04  2.9489e-04  0:02:24 1566
  2854  3.2494e-03  8.8468e-04  3.6651e-04  3.1622e-03  6.6378e-04  2.9391e-04  0:01:55 1565
  2855  3.2174e-03  8.8409e-04  3.6210e-04  3.1304e-03  6.6224e-04  2.9293e-04  0:01:32 1564
  2856  3.1860e-03  8.8920e-04  3.5669e-04  3.0988e-03  6.6049e-04  2.9186e-04  0:01:13 1563
  2857  3.1539e-03  8.9022e-04  3.5227e-04  3.0664e-03  6.5858e-04  2.9062e-04  0:00:59 1562
  2858  3.1215e-03  8.8849e-04  3.4672e-04  3.0338e-03  6.5658e-04  2.8937e-04  0:00:47 1561

  iter  continuity  x-velocity  y-velocity      energy           k       omega     time/iter
  2859  3.0896e-03  8.8316e-04  3.4441e-04  3.0016e-03  6.5447e-04  2.8807e-04  0:05:50 1560
  2860  3.0573e-03  8.8150e-04  3.4241e-04  2.9691e-03  6.5223e-04  2.8679e-04  0:04:39 1559
  2861  3.0245e-03  8.7398e-04  3.4229e-04  2.9367e-03  6.4979e-04  2.8545e-04  0:03:43 1558
  2862  2.9927e-03  8.7398e-04  3.4011e-04  2.9050e-03  6.4717e-04  2.8393e-04  0:02:59 1557
  2863  2.9612e-03  8.6928e-04  3.3756e-04  2.8736e-03  6.4436e-04  2.8239e-04  0:02:23 1556
  2864  2.9321e-03  8.7534e-04  3.3391e-04  2.8444e-03  6.4139e-04  2.8101e-04  0:01:54 1555
  2865  2.9059e-03  8.9582e-04  3.2907e-04  2.8178e-03  6.3837e-04  2.7973e-04  0:01:31 1554
  2866  2.8761e-03  8.9422e-04  3.2512e-04  2.7882e-03  6.3528e-04  2.7864e-04  0:01:13 1553
  2867  2.8479e-03  8.8650e-04  3.2701e-04  2.7600e-03  6.3227e-04  2.7747e-04  0:00:58 1552
  2868  2.8197e-03  8.6940e-04  3.3029e-04  2.7318e-03  6.2929e-04  2.7617e-04  0:05:57 1551
  2869  2.7949e-03  8.8116e-04  3.3350e-04  2.7069e-03  6.2625e-04  2.7441e-04  0:04:45 1550

  iter  continuity  x-velocity  y-velocity      energy           k       omega     time/iter
  2870  2.7720e-03  9.1114e-04  3.3456e-04  2.6843e-03  6.2320e-04  2.7264e-04  0:03:48 1549
  2871  2.7442e-03  8.9679e-04  3.3778e-04  2.6569e-03  6.2030e-04  2.7155e-04  0:03:02 1548
  2872  2.7211e-03  8.8601e-04  3.3862e-04  2.6341e-03  6.1741e-04  2.7020e-04  0:02:26 1547
  2873  2.7007e-03  8.8895e-04  3.4162e-04  2.6139e-03  6.1455e-04  2.6876e-04  0:01:57 1546
  2874  2.6827e-03  8.9890e-04  3.4118e-04  2.5956e-03  6.1161e-04  2.6729e-04  0:01:33 1545
  2875  2.6672e-03  9.1721e-04  3.3648e-04  2.5798e-03  6.0857e-04  2.6571e-04  0:01:14 1544
  2876  2.6568e-03  9.6174e-04  3.3371e-04  2.5689e-03  6.0548e-04  2.6414e-04  0:01:00 1543
  2877  2.6332e-03  9.3129e-04  3.3236e-04  2.5460e-03  6.0238e-04  2.6258e-04  0:00:48 1542
  2878  2.6130e-03  8.8495e-04  3.2759e-04  2.5269e-03  5.9943e-04  2.6087e-04  0:05:46 1541
  2879  2.5954e-03  8.6129e-04  3.2441e-04  2.5102e-03  5.9663e-04  2.5942e-04  0:04:37 1540
  2880  2.5794e-03  8.5244e-04  3.1983e-04  2.4948e-03  5.9399e-04  2.5810e-04  0:03:41 1539

  iter  continuity  x-velocity  y-velocity      energy           k       omega     time/iter
  2881  2.5654e-03  8.5054e-04  3.1353e-04  2.4810e-03  5.9136e-04  2.5690e-04  0:02:57 1538
  2882  2.5521e-03  8.4575e-04  3.1109e-04  2.4677e-03  5.8887e-04  2.5578e-04  0:02:21 1537
  2883  2.5386e-03  8.3667e-04  3.1097e-04  2.4543e-03  5.8648e-04  2.5476e-04  0:01:53 1536
  2884  2.5277e-03  8.4138e-04  3.1556e-04  2.4435e-03  5.8405e-04  2.5368e-04  0:01:30 1535
  2885  2.5177e-03  8.5643e-04  3.1928e-04  2.4342e-03  5.8163e-04  2.5248e-04  0:01:12 1534
  2886  2.5086e-03  8.5993e-04  3.2091e-04  2.4254e-03  5.7921e-04  2.5119e-04  0:00:58 1533
  2887  2.5003e-03  8.4952e-04  3.2032e-04  2.4173e-03  5.7690e-04  2.5000e-04  0:00:46 1532
  2888  2.4930e-03  8.4796e-04  3.1273e-04  2.4102e-03  5.7466e-04  2.4883e-04  0:00:37 1531
  2889  2.4884e-03  8.6618e-04  3.1131e-04  2.4054e-03  5.7244e-04  2.4787e-04  0:05:36 1530
  2890  2.4801e-03  8.7039e-04  3.1096e-04  2.3974e-03  5.7027e-04  2.4621e-04  0:04:28 1529
  2891  2.4732e-03  8.7160e-04  3.1464e-04  2.3906e-03  5.6818e-04  2.4479e-04  0:03:34 1528

  iter  continuity  x-velocity  y-velocity      energy           k       omega     time/iter
  2892  2.4658e-03  8.7505e-04  3.2138e-04  2.3835e-03  5.6624e-04  2.4376e-04  0:02:51 1527
  2893  2.4592e-03  8.8440e-04  3.2303e-04  2.3772e-03  5.6446e-04  2.4263e-04  0:02:17 1526
  2894  2.4514e-03  9.0148e-04  3.2615e-04  2.3703e-03  5.6286e-04  2.4154e-04  0:01:50 1525
  2895  2.4436e-03  8.9738e-04  3.2661e-04  2.3627e-03  5.6152e-04  2.4037e-04  0:01:28 1524
  2896  2.4364e-03  9.1333e-04  3.2385e-04  2.3555e-03  5.6031e-04  2.3949e-04  0:01:10 1523
  2897  2.4310e-03  9.4618e-04  3.2219e-04  2.3506e-03  5.5912e-04  2.3888e-04  0:00:56 1522
  2898  2.4214e-03  9.3877e-04  3.1782e-04  2.3413e-03  5.5798e-04  2.3818e-04  0:05:49 1521
  2899  2.4160e-03  9.4577e-04  3.1801e-04  2.3357e-03  5.5691e-04  2.3741e-04  0:04:39 1520
  2900  2.4139e-03  9.6691e-04  3.2124e-04  2.3330e-03  5.5599e-04  2.3670e-04  0:03:43 1519
  2901  2.4075e-03  9.8611e-04  3.2312e-04  2.3265e-03  5.5521e-04  2.3608e-04  0:02:58 1518
  2902  2.3858e-03  9.2026e-04  3.1338e-04  2.3067e-03  5.5450e-04  2.3504e-04  0:02:23 1517

  iter  continuity  x-velocity  y-velocity      energy           k       omega     time/iter
  2903  2.3727e-03  8.9679e-04  3.0557e-04  2.2945e-03  5.5388e-04  2.3421e-04  0:01:54 1516
  2904  2.3617e-03  8.8066e-04  3.0289e-04  2.2841e-03  5.5329e-04  2.3400e-04  0:01:31 1515
  2905  2.3540e-03  8.6776e-04  3.0528e-04  2.2764e-03  5.5284e-04  2.3362e-04  0:01:13 1514
  2906  2.3486e-03  8.8384e-04  3.0508e-04  2.2712e-03  5.5241e-04  2.3306e-04  0:00:58 1513
  2907  2.3421e-03  8.9020e-04  3.0395e-04  2.2647e-03  5.5206e-04  2.3244e-04  0:00:47 1512
  2908  2.3356e-03  9.1610e-04  3.0242e-04  2.2585e-03  5.5185e-04  2.3163e-04  0:05:39 1511
  2909  2.3233e-03  8.9837e-04  2.9662e-04  2.2464e-03  5.5181e-04  2.3091e-04  0:04:31 1510
  2910  2.3170e-03  8.9250e-04  2.9859e-04  2.2399e-03  5.5194e-04  2.3038e-04  0:03:37 1509
  2911  2.3096e-03  9.0040e-04  3.0490e-04  2.2328e-03  5.5211e-04  2.3017e-04  0:02:53 1508
  2912  2.3029e-03  8.9863e-04  3.0847e-04  2.2263e-03  5.5246e-04  2.3008e-04  0:02:19 1507
  2913  2.2964e-03  8.9995e-04  3.0766e-04  2.2200e-03  5.5296e-04  2.2961e-04  0:01:51 1506

  iter  continuity  x-velocity  y-velocity      energy           k       omega     time/iter
  2914  2.2926e-03  9.1451e-04  3.0825e-04  2.2162e-03  5.5364e-04  2.2866e-04  0:01:29 1505
  2915  2.2882e-03  9.3780e-04  3.0932e-04  2.2123e-03  5.5440e-04  2.2790e-04  0:06:12 1504
  2916  2.2821e-03  9.2550e-04  3.1288e-04  2.2062e-03  5.5522e-04  2.2756e-04  0:04:57 1503
  2917  2.2780e-03  9.3086e-04  3.1501e-04  2.2021e-03  5.5604e-04  2.2719e-04  0:03:58 1502
  2918  2.2787e-03  9.6829e-04  3.1450e-04  2.2033e-03  5.5691e-04  2.2733e-04  0:03:10 1501
  2919  2.2776e-03  9.8227e-04  3.1490e-04  2.2027e-03  5.5784e-04  2.2754e-04  0:02:32 1500
  2920  2.2815e-03  9.8408e-04  3.1619e-04  2.2070e-03  5.5889e-04  2.2782e-04  0:02:01 1499
  2921  2.2880e-03  9.9721e-04  3.1758e-04  2.2132e-03  5.5996e-04  2.2798e-04  0:01:37 1498
  2922  2.2938e-03  9.8083e-04  3.1342e-04  2.2187e-03  5.6102e-04  2.2812e-04  0:01:18 1497
  2923  2.3055e-03  1.0165e-03  3.1221e-04  2.2296e-03  5.6208e-04  2.2797e-04  0:01:02 1496
  2924  2.3006e-03  9.6043e-04  3.0755e-04  2.2259e-03  5.6319e-04  2.2859e-04  0:00:50 1495

  iter  continuity  x-velocity  y-velocity      energy           k       omega     time/iter
  2925  2.3041e-03  9.2162e-04  3.0211e-04  2.2312e-03  5.6433e-04  2.2909e-04  0:05:38 1494
  2926  2.3110e-03  8.9797e-04  2.9864e-04  2.2393e-03  5.6551e-04  2.2946e-04  0:04:31 1493
  2927  2.3203e-03  8.9122e-04  2.9666e-04  2.2497e-03  5.6668e-04  2.2966e-04  0:03:36 1492
  2928  2.3323e-03  8.9636e-04  2.9472e-04  2.2624e-03  5.6783e-04  2.2981e-04  0:02:53 1491
  2929  2.3464e-03  9.0210e-04  2.9170e-04  2.2767e-03  5.6894e-04  2.2987e-04  0:02:18 1490
  2930  2.3629e-03  9.1331e-04  2.9219e-04  2.2932e-03  5.7008e-04  2.3031e-04  0:01:51 1489
  2931  2.3789e-03  9.2290e-04  2.9408e-04  2.3095e-03  5.7121e-04  2.3066e-04  0:01:28 1488
  2932  2.3948e-03  9.3756e-04  2.9676e-04  2.3262e-03  5.7237e-04  2.3078e-04  0:01:11 1487
  2933  2.4100e-03  9.4116e-04  2.9975e-04  2.3416e-03  5.7361e-04  2.3074e-04  0:00:56 1486
  2934  2.4239e-03  9.3477e-04  2.9901e-04  2.3558e-03  5.7500e-04  2.3046e-04  0:00:45 1485
  2935  2.4405e-03  9.4250e-04  3.0009e-04  2.3728e-03  5.7648e-04  2.3020e-04  0:05:33 1484

  iter  continuity  x-velocity  y-velocity      energy           k       omega     time/iter
  2936  2.4534e-03  9.4803e-04  3.0301e-04  2.3862e-03  5.7801e-04  2.3033e-04  0:04:26 1483
  2937  2.4652e-03  9.3532e-04  3.0308e-04  2.3985e-03  5.7951e-04  2.3052e-04  0:03:33 1482
  2938  2.4767e-03  9.3588e-04  2.9875e-04  2.4107e-03  5.8090e-04  2.3063e-04  0:02:50 1481
  2939  2.4909e-03  9.5801e-04  2.9498e-04  2.4259e-03  5.8230e-04  2.3068e-04  0:02:16 1480
  2940  2.5033e-03  9.7793e-04  2.9518e-04  2.4393e-03  5.8366e-04  2.3056e-04  0:01:49 1479
  2941  2.5140e-03  9.6508e-04  2.9477e-04  2.4503e-03  5.8498e-04  2.3052e-04  0:01:27 1478
  2942  2.5269e-03  9.7874e-04  2.9525e-04  2.4637e-03  5.8626e-04  2.3041e-04  0:01:09 1477
  2943  2.5401e-03  9.9187e-04  2.9705e-04  2.4770e-03  5.8748e-04  2.2993e-04  0:00:56 1476
  2944  2.5509e-03  9.8153e-04  2.9519e-04  2.4880e-03  5.8864e-04  2.2958e-04  0:00:44 1475
  2945  2.5691e-03  1.0167e-03  2.9522e-04  2.5057e-03  5.8975e-04  2.2929e-04  0:05:30 1474
  2946  2.5777e-03  1.0109e-03  2.9476e-04  2.5148e-03  5.9078e-04  2.2918e-04  0:04:24 1473

  iter  continuity  x-velocity  y-velocity      energy           k       omega     time/iter
  2947  2.5766e-03  9.2824e-04  2.8944e-04  2.5155e-03  5.9179e-04  2.2911e-04  0:03:31 1472
  2948  2.5837e-03  9.1309e-04  2.8740e-04  2.5239e-03  5.9281e-04  2.2886e-04  0:02:49 1471
  2949  2.5912e-03  9.0423e-04  2.8274e-04  2.5323e-03  5.9384e-04  2.2838e-04  0:02:15 1470
  2950  2.6001e-03  8.9354e-04  2.7930e-04  2.5414e-03  5.9484e-04  2.2839e-04  0:01:48 1469
  2951  2.6120e-03  9.0316e-04  2.7819e-04  2.5532e-03  5.9583e-04  2.2834e-04  0:01:26 1468
  2952  2.6218e-03  9.3282e-04  2.8327e-04  2.5631e-03  5.9685e-04  2.2819e-04  0:01:09 1467
  2953  2.6247e-03  9.1107e-04  2.8130e-04  2.5671e-03  5.9788e-04  2.2771e-04  0:00:55 1466
  2954  2.6298e-03  8.9269e-04  2.8004e-04  2.5731e-03  5.9881e-04  2.2759e-04  0:05:37 1465
  2955  2.6357e-03  8.8765e-04  2.8343e-04  2.5795e-03  5.9980e-04  2.2740e-04  0:04:29 1464
  2956  2.6414e-03  8.7931e-04  2.8387e-04  2.5853e-03  6.0070e-04  2.2714e-04  0:03:35 1463
  2957  2.6478e-03  8.7584e-04  2.8282e-04  2.5915e-03  6.0159e-04  2.2680e-04  0:02:52 1462

  iter  continuity  x-velocity  y-velocity      energy           k       omega     time/iter
  2958  2.6511e-03  8.7309e-04  2.8063e-04  2.5955e-03  6.0240e-04  2.2649e-04  0:02:18 1461
  2959  2.6559e-03  8.6204e-04  2.7848e-04  2.6008e-03  6.0308e-04  2.2610e-04  0:01:50 1460
  2960  2.6607e-03  8.6643e-04  2.7771e-04  2.6061e-03  6.0363e-04  2.2566e-04  0:01:28 1459
  2961  2.6644e-03  8.6580e-04  2.7555e-04  2.6100e-03  6.0413e-04  2.2518e-04  0:01:10 1458
  2962  2.6666e-03  8.7511e-04  2.7426e-04  2.6126e-03  6.0456e-04  2.2437e-04  0:00:56 1457
  2963  2.6670e-03  8.5964e-04  2.7280e-04  2.6136e-03  6.0494e-04  2.2375e-04  0:05:36 1456
  2964  2.6696e-03  8.6234e-04  2.7300e-04  2.6166e-03  6.0529e-04  2.2340e-04  0:04:29 1455
  2965  2.6734e-03  8.9098e-04  2.7373e-04  2.6206e-03  6.0558e-04  2.2300e-04  0:03:35 1454
  2966  2.6737e-03  9.0019e-04  2.7353e-04  2.6211e-03  6.0580e-04  2.2250e-04  0:02:52 1453
  2967  2.6755e-03  8.8338e-04  2.7283e-04  2.6233e-03  6.0594e-04  2.2198e-04  0:02:17 1452
  2968  2.6807e-03  9.0876e-04  2.7561e-04  2.6280e-03  6.0600e-04  2.2131e-04  0:01:50 1451

  iter  continuity  x-velocity  y-velocity      energy           k       omega     time/iter
  2969  2.6834e-03  9.2323e-04  2.7352e-04  2.6303e-03  6.0599e-04  2.2050e-04  0:01:28 1450
  2970  2.6738e-03  8.8800e-04  2.6848e-04  2.6215e-03  6.0594e-04  2.1999e-04  0:01:10 1449
  2971  2.6644e-03  8.1790e-04  2.6388e-04  2.6135e-03  6.0582e-04  2.1940e-04  0:00:56 1448
  2972  2.6577e-03  7.8939e-04  2.6198e-04  2.6079e-03  6.0566e-04  2.1875e-04  0:00:45 1447
  2973  2.6524e-03  7.7184e-04  2.5976e-04  2.6031e-03  6.0545e-04  2.1811e-04  0:05:25 1446
  2974  2.6474e-03  7.6191e-04  2.5943e-04  2.5985e-03  6.0516e-04  2.1732e-04  0:04:20 1445
  2975  2.6434e-03  7.7342e-04  2.6049e-04  2.5945e-03  6.0480e-04  2.1690e-04  0:03:28 1444
  2976  2.6370e-03  7.7206e-04  2.6024e-04  2.5885e-03  6.0438e-04  2.1645e-04  0:02:46 1443
  2977  2.6303e-03  7.7493e-04  2.5900e-04  2.5821e-03  6.0397e-04  2.1610e-04  0:02:13 1442
  2978  2.6219e-03  7.7303e-04  2.5832e-04  2.5739e-03  6.0359e-04  2.1573e-04  0:01:46 1441
  2979  2.6135e-03  7.7433e-04  2.5843e-04  2.5658e-03  6.0323e-04  2.1512e-04  0:01:25 1440

  iter  continuity  x-velocity  y-velocity      energy           k       omega     time/iter
  2980  2.6059e-03  7.6976e-04  2.6240e-04  2.5582e-03  6.0288e-04  2.1408e-04  0:01:08 1439
  2981  2.5985e-03  7.7710e-04  2.6732e-04  2.5508e-03  6.0258e-04  2.1303e-04  0:00:54 1438
  2982  2.5871e-03  7.6718e-04  2.6897e-04  2.5398e-03  6.0228e-04  2.1221e-04  0:00:43 1437
  2983  2.5762e-03  7.6616e-04  2.6481e-04  2.5291e-03  6.0191e-04  2.1164e-04  0:05:22 1436
  2984  2.5640e-03  7.6637e-04  2.6001e-04  2.5173e-03  6.0148e-04  2.1095e-04  0:04:17 1435
  2985  2.5524e-03  7.6511e-04  2.5937e-04  2.5060e-03  6.0097e-04  2.1029e-04  0:03:26 1434
  2986  2.5425e-03  7.8715e-04  2.6032e-04  2.4964e-03  6.0047e-04  2.0953e-04  0:02:44 1433
  2987  2.5285e-03  7.8683e-04  2.6133e-04  2.4827e-03  5.9996e-04  2.0894e-04  0:02:11 1432
  2988  2.5146e-03  7.9196e-04  2.6226e-04  2.4691e-03  5.9945e-04  2.0846e-04  0:01:45 1431
  2989  2.5012e-03  7.9241e-04  2.6152e-04  2.4561e-03  5.9891e-04  2.0799e-04  0:01:24 1430
  2990  2.4914e-03  8.2890e-04  2.5941e-04  2.4464e-03  5.9836e-04  2.0728e-04  0:01:07 1429

  iter  continuity  x-velocity  y-velocity      energy           k       omega     time/iter
  2991  2.4776e-03  8.3956e-04  2.6126e-04  2.4325e-03  5.9781e-04  2.0651e-04  0:00:54 1428
  2992  2.4652e-03  8.3718e-04  2.6127e-04  2.4196e-03  5.9725e-04  2.0585e-04  0:00:43 1427
  2993  2.4591e-03  8.8406e-04  2.6498e-04  2.4128e-03  5.9657e-04  2.0521e-04  0:05:20 1426
  2994  2.4438e-03  8.8644e-04  2.6218e-04  2.3971e-03  5.9575e-04  2.0447e-04  0:04:15 1425
  2995  2.4222e-03  8.5995e-04  2.5936e-04  2.3763e-03  5.9488e-04  2.0368e-04  0:03:24 1424
  2996  2.3928e-03  7.3718e-04  2.5096e-04  2.3487e-03  5.9393e-04  2.0268e-04  0:02:43 1423
  2997  2.3708e-03  7.0321e-04  2.4614e-04  2.3280e-03  5.9294e-04  2.0177e-04  0:02:11 1422
  2998  2.3518e-03  6.9556e-04  2.4391e-04  2.3096e-03  5.9190e-04  2.0093e-04  0:01:44 1421
  2999  2.3331e-03  6.8317e-04  2.4194e-04  2.2911e-03  5.9085e-04  2.0006e-04  0:01:23 1420
  3000  2.3133e-03  6.6638e-04  2.4036e-04  2.2715e-03  5.8986e-04  1.9916e-04  0:01:07 1419
  3001  2.2930e-03  6.5517e-04  2.4054e-04  2.2513e-03  5.8884e-04  1.9819e-04  0:00:53 1418

  iter  continuity  x-velocity  y-velocity      energy           k       omega     time/iter
  3002  2.2739e-03  6.5283e-04  2.3613e-04  2.2321e-03  5.8785e-04  1.9706e-04  0:05:26 1417
  3003  2.2543e-03  6.5273e-04  2.3365e-04  2.2124e-03  5.8691e-04  1.9603e-04  0:04:21 1416
  3004  2.2337e-03  6.4469e-04  2.3300e-04  2.1915e-03  5.8594e-04  1.9503e-04  0:03:28 1415
  3005  2.2134e-03  6.4811e-04  2.3450e-04  2.1709e-03  5.8500e-04  1.9404e-04  0:02:47 1414
  3006  2.1940e-03  6.5709e-04  2.3677e-04  2.1511e-03  5.8409e-04  1.9305e-04  0:02:13 1413
  3007  2.1732e-03  6.6791e-04  2.3627e-04  2.1304e-03  5.8322e-04  1.9209e-04  0:01:46 1412
  3008  2.1528e-03  6.7454e-04  2.3745e-04  2.1101e-03  5.8237e-04  1.9119e-04  0:01:25 1411
  3009  2.1307e-03  6.6699e-04  2.3760e-04  2.0877e-03  5.8156e-04  1.9040e-04  0:01:08 1410
  3010  2.1070e-03  6.5473e-04  2.3624e-04  2.0639e-03  5.8078e-04  1.8962e-04  0:00:54 1409
  3011  2.0845e-03  6.4726e-04  2.3336e-04  2.0412e-03  5.7998e-04  1.8875e-04  0:00:43 1408
  3012  2.0640e-03  6.6298e-04  2.3283e-04  2.0206e-03  5.7915e-04  1.8756e-04  0:05:16 1407

  iter  continuity  x-velocity  y-velocity      energy           k       omega     time/iter
  3013  2.0417e-03  6.7664e-04  2.3384e-04  1.9988e-03  5.7827e-04  1.8635e-04  0:04:13 1406
  3014  2.0197e-03  6.7648e-04  2.3399e-04  1.9768e-03  5.7739e-04  1.8522e-04  0:03:22 1405
  3015  1.9987e-03  6.8663e-04  2.3331e-04  1.9558e-03  5.7651e-04  1.8446e-04  0:02:42 1404
  3016  1.9771e-03  6.9811e-04  2.3124e-04  1.9343e-03  5.7564e-04  1.8352e-04  0:02:09 1403
  3017  1.9558e-03  7.0838e-04  2.2922e-04  1.9131e-03  5.7473e-04  1.8256e-04  0:01:43 1402
  3018  1.9339e-03  7.0824e-04  2.3020e-04  1.8912e-03  5.7380e-04  1.8168e-04  0:01:23 1401
  3019  1.9139e-03  7.0180e-04  2.3117e-04  1.8711e-03  5.7285e-04  1.8076e-04  0:01:06 1400
  3020  1.9026e-03  7.3520e-04  2.3501e-04  1.8590e-03  5.7187e-04  1.7970e-04  0:00:53 1399
  3021  1.8863e-03  7.6043e-04  2.3577e-04  1.8417e-03  5.7088e-04  1.7877e-04  0:00:42 1398
  3022  1.8689e-03  7.8313e-04  2.3334e-04  1.8241e-03  5.6984e-04  1.7792e-04  0:05:13 1397
  3023  1.8358e-03  6.9315e-04  2.2802e-04  1.7926e-03  5.6876e-04  1.7709e-04  0:04:10 1396

  iter  continuity  x-velocity  y-velocity      energy           k       omega     time/iter
  3024  1.8133e-03  6.5926e-04  2.2501e-04  1.7713e-03  5.6765e-04  1.7628e-04  0:03:20 1395
  3025  1.7952e-03  6.5084e-04  2.2274e-04  1.7539e-03  5.6648e-04  1.7546e-04  0:02:40 1394
  3026  1.7776e-03  6.4692e-04  2.2255e-04  1.7364e-03  5.6527e-04  1.7465e-04  0:02:08 1393
  3027  1.7599e-03  6.4190e-04  2.2024e-04  1.7188e-03  5.6403e-04  1.7382e-04  0:01:42 1392
  3028  1.7441e-03  6.4023e-04  2.1675e-04  1.7029e-03  5.6276e-04  1.7301e-04  0:01:22 1391
  3029  1.7308e-03  6.4643e-04  2.1630e-04  1.6892e-03  5.6145e-04  1.7222e-04  0:01:05 1390
  3030  1.7170e-03  6.4059e-04  2.1762e-04  1.6751e-03  5.6010e-04  1.7149e-04  0:00:52 1389
  3031  1.7073e-03  6.6062e-04  2.1766e-04  1.6645e-03  5.5869e-04  1.7073e-04  0:00:42 1388
  3032  1.6973e-03  6.7905e-04  2.1785e-04  1.6537e-03  5.5724e-04  1.6998e-04  0:05:11 1387
  3033  1.6852e-03  6.6818e-04  2.1750e-04  1.6413e-03  5.5575e-04  1.6912e-04  0:04:08 1386
  3034  1.6657e-03  6.3522e-04  2.1547e-04  1.6223e-03  5.5421e-04  1.6825e-04  0:03:19 1385

  iter  continuity  x-velocity  y-velocity      energy           k       omega     time/iter
  3035  1.6510e-03  6.1024e-04  2.1582e-04  1.6085e-03  5.5263e-04  1.6734e-04  0:02:39 1384
  3036  1.6382e-03  6.0231e-04  2.1713e-04  1.5960e-03  5.5100e-04  1.6644e-04  0:02:07 1383
  3037  1.6272e-03  6.0556e-04  2.1848e-04  1.5853e-03  5.4928e-04  1.6539e-04  0:01:41 1382
  3038  1.6182e-03  6.1376e-04  2.1720e-04  1.5760e-03  5.4754e-04  1.6463e-04  0:01:21 1381
  3039  1.6090e-03  6.0592e-04  2.1916e-04  1.5664e-03  5.4576e-04  1.6395e-04  0:01:05 1380
  3040  1.6018e-03  6.1695e-04  2.1954e-04  1.5589e-03  5.4398e-04  1.6337e-04  0:00:52 1379
  3041  1.5924e-03  6.1340e-04  2.1881e-04  1.5499e-03  5.4220e-04  1.6285e-04  0:00:41 1378
  3042  1.5852e-03  6.1149e-04  2.1834e-04  1.5427e-03  5.4040e-04  1.6235e-04  0:05:09 1377
  3043  1.5803e-03  6.2098e-04  2.1619e-04  1.5380e-03  5.3855e-04  1.6189e-04  0:04:07 1376
  3044  1.5744e-03  6.0731e-04  2.1585e-04  1.5320e-03  5.3671e-04  1.6146e-04  0:03:17 1375
  3045  1.5741e-03  6.2381e-04  2.1583e-04  1.5316e-03  5.3489e-04  1.6105e-04  0:02:38 1374

  iter  continuity  x-velocity  y-velocity      energy           k       omega     time/iter
  3046  1.5721e-03  6.2766e-04  2.1706e-04  1.5298e-03  5.3312e-04  1.6061e-04  0:02:06 1373
  3047  1.5744e-03  6.3153e-04  2.1843e-04  1.5320e-03  5.3140e-04  1.6029e-04  0:01:41 1372
  3048  1.5785e-03  6.3958e-04  2.2321e-04  1.5360e-03  5.2972e-04  1.6021e-04  0:01:21 1371
  3049  1.5871e-03  6.4396e-04  2.2350e-04  1.5442e-03  5.2809e-04  1.6003e-04  0:05:38 1370
  3050  1.5983e-03  6.7079e-04  2.2453e-04  1.5545e-03  5.2654e-04  1.5975e-04  0:04:31 1369
  3051  1.6138e-03  7.0464e-04  2.2324e-04  1.5698e-03  5.2510e-04  1.5939e-04  0:03:36 1368
  3052  1.6191e-03  7.0108e-04  2.2057e-04  1.5757e-03  5.2375e-04  1.5901e-04  0:02:53 1367
  3053  1.6203e-03  6.1281e-04  2.1763e-04  1.5783e-03  5.2248e-04  1.5829e-04  0:02:18 1366
  3054  1.6289e-03  5.8967e-04  2.1565e-04  1.5880e-03  5.2129e-04  1.5753e-04  0:01:50 1365
  3055  1.6407e-03  5.7484e-04  2.1567e-04  1.6004e-03  5.2018e-04  1.5711e-04  0:01:28 1364
  3056  1.6546e-03  5.6886e-04  2.1464e-04  1.6146e-03  5.1918e-04  1.5672e-04  0:01:11 1363

  iter  continuity  x-velocity  y-velocity      energy           k       omega     time/iter
  3057  1.6697e-03  5.6548e-04  2.1332e-04  1.6300e-03  5.1827e-04  1.5635e-04  0:00:56 1362
  3058  1.6850e-03  5.5461e-04  2.1201e-04  1.6455e-03  5.1747e-04  1.5606e-04  0:00:45 1361
  3059  1.7003e-03  5.4142e-04  2.1043e-04  1.6609e-03  5.1680e-04  1.5580e-04  0:05:08 1360
  3060  1.7174e-03  5.4816e-04  2.1077e-04  1.6782e-03  5.1659e-04  1.5554e-04  0:04:06 1359
  3061  1.7347e-03  5.5603e-04  2.1257e-04  1.6956e-03  5.1686e-04  1.5536e-04  0:03:17 1358
  3062  1.7524e-03  5.5851e-04  2.1401e-04  1.7132e-03  5.1737e-04  1.5524e-04  0:02:37 1357
  3063  1.7700e-03  5.7295e-04  2.1512e-04  1.7310e-03  5.1803e-04  1.5514e-04  0:02:06 1356
  3064  1.7842e-03  5.6990e-04  2.1552e-04  1.7457e-03  5.1879e-04  1.5510e-04  0:01:41 1355
  3065  1.8007e-03  5.7472e-04  2.1353e-04  1.7625e-03  5.1963e-04  1.5511e-04  0:01:20 1354
  3066  1.8182e-03  5.8636e-04  2.1523e-04  1.7800e-03  5.2069e-04  1.5523e-04  0:01:04 1353
  3067  1.8353e-03  5.8888e-04  2.1758e-04  1.7970e-03  5.2183e-04  1.5543e-04  0:00:51 1352

  iter  continuity  x-velocity  y-velocity      energy           k       omega     time/iter
  3068  1.8528e-03  5.9541e-04  2.1798e-04  1.8144e-03  5.2301e-04  1.5559e-04  0:05:11 1351
  3069  1.8704e-03  5.9839e-04  2.2138e-04  1.8319e-03  5.2422e-04  1.5576e-04  0:04:09 1350
  3070  1.8878e-03  6.0978e-04  2.2311e-04  1.8494e-03  5.2543e-04  1.5601e-04  0:03:19 1349
  3071  1.9045e-03  6.1268e-04  2.2423e-04  1.8667e-03  5.2668e-04  1.5632e-04  0:02:39 1348
  3072  1.9218e-03  6.1212e-04  2.2386e-04  1.8839e-03  5.2792e-04  1.5648e-04  0:02:07 1347
  3073  1.9417e-03  6.2767e-04  2.2482e-04  1.9037e-03  5.2913e-04  1.5689e-04  0:01:42 1346
  3074  1.9620e-03  6.4628e-04  2.2654e-04  1.9239e-03  5.3034e-04  1.5720e-04  0:01:21 1345
  3075  1.9807e-03  6.5418e-04  2.3041e-04  1.9428e-03  5.3155e-04  1.5768e-04  0:01:05 1344
  3076  1.9955e-03  6.3465e-04  2.3134e-04  1.9583e-03  5.3275e-04  1.5812e-04  0:00:52 1343
  3077  2.0122e-03  6.1651e-04  2.3090e-04  1.9756e-03  5.3392e-04  1.5846e-04  0:00:42 1342
  3078  2.0300e-03  6.0985e-04  2.2972e-04  1.9938e-03  5.3504e-04  1.5879e-04  0:05:01 1341

  iter  continuity  x-velocity  y-velocity      energy           k       omega     time/iter
  3079  2.0493e-03  6.0840e-04  2.2985e-04  2.0133e-03  5.3604e-04  1.5897e-04  0:04:01 1340
  3080  2.0715e-03  6.2810e-04  2.3042e-04  2.0353e-03  5.3696e-04  1.5901e-04  0:03:13 1339
  3081  2.0891e-03  6.1624e-04  2.2985e-04  2.0530e-03  5.3785e-04  1.5895e-04  0:02:34 1338
  3082  2.1137e-03  6.5131e-04  2.3288e-04  2.0768e-03  5.3867e-04  1.5892e-04  0:02:03 1337
  3083  2.1362e-03  7.0067e-04  2.3493e-04  2.0989e-03  5.3942e-04  1.5893e-04  0:01:38 1336
  3084  2.1470e-03  6.7401e-04  2.3292e-04  2.1103e-03  5.4007e-04  1.5888e-04  0:01:19 1335
  3085  2.1569e-03  6.1169e-04  2.3040e-04  2.1211e-03  5.4060e-04  1.5877e-04  0:01:03 1334
  3086  2.1686e-03  5.8958e-04  2.2681e-04  2.1335e-03  5.4103e-04  1.5864e-04  0:00:50 1333
  3087  2.1804e-03  5.7825e-04  2.2395e-04  2.1457e-03  5.4136e-04  1.5861e-04  0:00:40 1332
  3088  2.1918e-03  5.7641e-04  2.2200e-04  2.1572e-03  5.4159e-04  1.5858e-04  0:04:58 1331
  3089  2.2023e-03  5.7513e-04  2.2018e-04  2.1677e-03  5.4171e-04  1.5858e-04  0:03:58 1330

  iter  continuity  x-velocity  y-velocity      energy           k       omega     time/iter
  3090  2.2115e-03  5.7437e-04  2.1973e-04  2.1768e-03  5.4177e-04  1.5858e-04  0:03:11 1329
  3091  2.2186e-03  5.6640e-04  2.1910e-04  2.1839e-03  5.4173e-04  1.5859e-04  0:02:32 1328
  3092  2.2250e-03  5.6578e-04  2.1751e-04  2.1903e-03  5.4162e-04  1.5842e-04  0:02:02 1327
  3093  2.2299e-03  5.6091e-04  2.1740e-04  2.1952e-03  5.4142e-04  1.5820e-04  0:01:37 1326
  3094  2.2336e-03  5.6278e-04  2.1755e-04  2.1987e-03  5.4112e-04  1.5843e-04  0:01:18 1325
  3095  2.2361e-03  5.7134e-04  2.1583e-04  2.2012e-03  5.4074e-04  1.5859e-04  0:01:02 1324
  3096  2.2373e-03  5.8003e-04  2.1405e-04  2.2024e-03  5.4025e-04  1.5863e-04  0:00:50 1323
  3097  2.2372e-03  5.8770e-04  2.1396e-04  2.2023e-03  5.3968e-04  1.5858e-04  0:00:40 1322
  3098  2.2361e-03  6.0182e-04  2.1324e-04  2.2012e-03  5.3899e-04  1.5846e-04  0:04:56 1321
  3099  2.2326e-03  5.9769e-04  2.1425e-04  2.1976e-03  5.3819e-04  1.5832e-04  0:03:57 1320
  3100  2.2282e-03  5.9832e-04  2.1785e-04  2.1931e-03  5.3724e-04  1.5801e-04  0:03:09 1319

  iter  continuity  x-velocity  y-velocity      energy           k       omega     time/iter
  3101  2.2230e-03  5.9824e-04  2.1933e-04  2.1878e-03  5.3616e-04  1.5784e-04  0:02:31 1318
  3102  2.2157e-03  6.0329e-04  2.1822e-04  2.1806e-03  5.3494e-04  1.5785e-04  0:02:01 1317
  3103  2.2074e-03  6.0183e-04  2.1691e-04  2.1726e-03  5.3370e-04  1.5781e-04  0:01:37 1316
  3104  2.1990e-03  6.0579e-04  2.1687e-04  2.1643e-03  5.3242e-04  1.5768e-04  0:01:17 1315
  3105  2.1908e-03  6.1950e-04  2.1634e-04  2.1562e-03  5.3110e-04  1.5759e-04  0:01:02 1314
  3106  2.1821e-03  6.2475e-04  2.1804e-04  2.1475e-03  5.2970e-04  1.5752e-04  0:00:49 1313
  3107  2.1739e-03  6.3006e-04  2.2236e-04  2.1393e-03  5.2814e-04  1.5728e-04  0:05:02 1312
  3108  2.1666e-03  6.5477e-04  2.2387e-04  2.1321e-03  5.2648e-04  1.5736e-04  0:04:01 1311
  3109  2.1575e-03  6.5335e-04  2.2336e-04  2.1232e-03  5.2472e-04  1.5751e-04  0:03:13 1310
  3110  2.1493e-03  6.5877e-04  2.2228e-04  2.1151e-03  5.2288e-04  1.5760e-04  0:02:34 1309
  3111  2.1423e-03  6.6363e-04  2.2605e-04  2.1083e-03  5.2095e-04  1.5767e-04  0:02:03 1308

  iter  continuity  x-velocity  y-velocity      energy           k       omega     time/iter
  3112  2.1387e-03  6.8659e-04  2.2989e-04  2.1046e-03  5.1893e-04  1.5764e-04  0:01:39 1307
  3113  2.1338e-03  7.0050e-04  2.3056e-04  2.0994e-03  5.1683e-04  1.5753e-04  0:01:19 1306
  3114  2.1279e-03  6.9976e-04  2.2929e-04  2.0936e-03  5.1472e-04  1.5741e-04  0:01:03 1305
  3115  2.1268e-03  7.1236e-04  2.2946e-04  2.0921e-03  5.1252e-04  1.5723e-04  0:00:50 1304
  3116  2.1323e-03  7.6031e-04  2.3104e-04  2.0962e-03  5.1023e-04  1.5698e-04  0:00:40 1303
  3117  2.1329e-03  8.0530e-04  2.3223e-04  2.0965e-03  5.0784e-04  1.5661e-04  0:00:32 1302
  3118  2.1203e-03  7.5543e-04  2.2921e-04  2.0848e-03  5.0538e-04  1.5620e-04  0:04:46 1301
  3119  2.1110e-03  6.9544e-04  2.2607e-04  2.0765e-03  5.0283e-04  1.5577e-04  0:03:49 1300
  3120  2.1038e-03  6.4821e-04  2.2333e-04  2.0701e-03  5.0022e-04  1.5533e-04  0:03:03 1299
  3121  2.0995e-03  6.2945e-04  2.1951e-04  2.0663e-03  4.9765e-04  1.5487e-04  0:02:26 1298
  3122  2.0977e-03  6.2533e-04  2.1740e-04  2.0648e-03  4.9502e-04  1.5433e-04  0:01:57 1297

  iter  continuity  x-velocity  y-velocity      energy           k       omega     time/iter
[...]
  3926  1.3699e-03  2.9313e-04  1.3572e-04  1.3266e-03  2.2892e-04  9.7899e-05  0:00:57  493
  3927  1.3693e-03  2.9255e-04  1.3541e-04  1.3263e-03  2.2874e-04  9.7913e-05  0:00:45  492
  3928  1.3690e-03  2.9289e-04  1.3536e-04  1.3261e-03  2.2857e-04  9.7958e-05  0:00:36  491
  3929  1.3690e-03  2.9575e-04  1.3495e-04  1.3263e-03  2.2846e-04  9.8000e-05  0:00:29  490
  3930  1.3694e-03  2.9798e-04  1.3508e-04  1.3268e-03  2.2841e-04  9.8055e-05  0:00:23  489
  3931  1.3704e-03  2.9772e-04  1.3574e-04  1.3280e-03  2.2842e-04  9.8104e-05  0:00:18  488
  3932  1.3719e-03  2.9527e-04  1.3602e-04  1.3297e-03  2.2848e-04  9.8152e-05  0:00:15  487
  3933  1.3738e-03  2.9231e-04  1.3629e-04  1.3319e-03  2.2863e-04  9.8198e-05  0:00:12  486
  3934  1.3764e-03  2.9448e-04  1.3677e-04  1.3346e-03  2.2884e-04  9.8204e-05  0:01:46  485
  3935  1.3794e-03  3.0773e-04  1.3734e-04  1.3380e-03  2.2912e-04  9.8185e-05  0:01:25  484
  3936  1.3822e-03  3.1477e-04  1.3812e-04  1.3411e-03  2.2944e-04  9.8149e-05  0:01:08  483

  iter  continuity  x-velocity  y-velocity      energy           k       omega     time/iter
  3937  1.3846e-03  3.1052e-04  1.3859e-04  1.3437e-03  2.2978e-04  9.8094e-05  0:00:54  482
  3938  1.3875e-03  3.0357e-04  1.3889e-04  1.3469e-03  2.3016e-04  9.8008e-05  0:00:43  481
  3939  1.3909e-03  2.9777e-04  1.3953e-04  1.3506e-03  2.3058e-04  9.7952e-05  0:00:34  480
  3940  1.3938e-03  2.9185e-04  1.4034e-04  1.3537e-03  2.3111e-04  9.7891e-05  0:00:28  479
  3941  1.3968e-03  2.8784e-04  1.4106e-04  1.3570e-03  2.3170e-04  9.7843e-05  0:00:22  478
  3942  1.4004e-03  2.8796e-04  1.4132e-04  1.3608e-03  2.3226e-04  9.7816e-05  0:00:18  477
  3943  1.4043e-03  2.9094e-04  1.4282e-04  1.3651e-03  2.3284e-04  9.7792e-05  0:00:14  476
  3944  1.4089e-03  2.9413e-04  1.4337e-04  1.3700e-03  2.3337e-04  9.7793e-05  0:01:46  475
  3945  1.4140e-03  2.9414e-04  1.4287e-04  1.3753e-03  2.3396e-04  9.7827e-05  0:01:25  474
  3946  1.4200e-03  2.9506e-04  1.4323e-04  1.3816e-03  2.3456e-04  9.7874e-05  0:01:08  473
  3947  1.4261e-03  2.9749e-04  1.4295e-04  1.3880e-03  2.3524e-04  9.7908e-05  0:00:54  472

  iter  continuity  x-velocity  y-velocity      energy           k       omega     time/iter
  3948  1.4317e-03  2.9667e-04  1.4273e-04  1.3939e-03  2.3592e-04  9.7922e-05  0:00:43  471
  3949  1.4381e-03  2.9564e-04  1.4267e-04  1.4006e-03  2.3660e-04  9.7945e-05  0:00:34  470
  3950  1.4449e-03  2.9574e-04  1.4272e-04  1.4077e-03  2.3728e-04  9.7993e-05  0:00:27  469
  3951  1.4524e-03  2.9802e-04  1.4340e-04  1.4155e-03  2.3804e-04  9.8054e-05  0:00:22  468
  3952  1.4605e-03  3.0378e-04  1.4398e-04  1.4240e-03  2.3881e-04  9.8101e-05  0:00:18  467
  3953  1.4689e-03  3.0857e-04  1.4411e-04  1.4327e-03  2.3960e-04  9.8115e-05  0:00:14  466
  3954  1.4773e-03  3.1065e-04  1.4423e-04  1.4415e-03  2.4040e-04  9.8114e-05  0:00:11  465
  3955  1.4860e-03  3.1187e-04  1.4444e-04  1.4505e-03  2.4118e-04  9.8085e-05  0:01:42  464
  3956  1.4960e-03  3.1272e-04  1.4428e-04  1.4609e-03  2.4192e-04  9.8017e-05  0:01:21  463
  3957  1.5055e-03  3.1168e-04  1.4428e-04  1.4707e-03  2.4262e-04  9.7907e-05  0:01:05  462
  3958  1.5153e-03  3.0798e-04  1.4394e-04  1.4809e-03  2.4329e-04  9.7791e-05  0:00:52  461

  iter  continuity  x-velocity  y-velocity      energy           k       omega     time/iter
  3959  1.5260e-03  3.0868e-04  1.4390e-04  1.4918e-03  2.4394e-04  9.7676e-05  0:00:41  460
  3960  1.5374e-03  3.2282e-04  1.4410e-04  1.5034e-03  2.4456e-04  9.7549e-05  0:00:33  459
  3961  1.5493e-03  3.4403e-04  1.4449e-04  1.5157e-03  2.4514e-04  9.7401e-05  0:00:26  458
  3962  1.5606e-03  3.5192e-04  1.4449e-04  1.5272e-03  2.4567e-04  9.7279e-05  0:00:21  457
  3963  1.5719e-03  3.4677e-04  1.4475e-04  1.5388e-03  2.4624e-04  9.7163e-05  0:00:17  456
  3964  1.5833e-03  3.4321e-04  1.4493e-04  1.5505e-03  2.4681e-04  9.7060e-05  0:00:13  455
  3965  1.5945e-03  3.3229e-04  1.4488e-04  1.5620e-03  2.4742e-04  9.6950e-05  0:00:11  454
  3966  1.6058e-03  3.2357e-04  1.4443e-04  1.5735e-03  2.4804e-04  9.6807e-05  0:01:39  453
  3967  1.6174e-03  3.1513e-04  1.4407e-04  1.5854e-03  2.4868e-04  9.6665e-05  0:01:19  452
  3968  1.6296e-03  3.1508e-04  1.4429e-04  1.5979e-03  2.4928e-04  9.6537e-05  0:01:03  451
  3969  1.6422e-03  3.1594e-04  1.4525e-04  1.6107e-03  2.4991e-04  9.6390e-05  0:00:50  450

  iter  continuity  x-velocity  y-velocity      energy           k       omega     time/iter
  3970  1.6549e-03  3.1486e-04  1.4600e-04  1.6236e-03  2.5059e-04  9.6250e-05  0:00:40  449
  3971  1.6678e-03  3.1517e-04  1.4684e-04  1.6367e-03  2.5126e-04  9.6120e-05  0:00:32  448
  3972  1.6810e-03  3.1754e-04  1.4696e-04  1.6501e-03  2.5183e-04  9.5987e-05  0:00:26  447
  3973  1.6943e-03  3.1941e-04  1.4750e-04  1.6635e-03  2.5236e-04  9.5828e-05  0:00:20  446
  3974  1.7074e-03  3.2221e-04  1.4758e-04  1.6768e-03  2.5277e-04  9.5649e-05  0:00:16  445
  3975  1.7208e-03  3.2042e-04  1.4718e-04  1.6903e-03  2.5309e-04  9.5439e-05  0:01:42  444
  3976  1.7339e-03  3.2376e-04  1.4651e-04  1.7036e-03  2.5333e-04  9.5220e-05  0:01:21  443
  3977  1.7471e-03  3.2791e-04  1.4576e-04  1.7170e-03  2.5355e-04  9.4992e-05  0:01:05  442
  3978  1.7602e-03  3.2978e-04  1.4513e-04  1.7302e-03  2.5372e-04  9.4749e-05  0:00:52  441
  3979  1.7730e-03  3.3181e-04  1.4404e-04  1.7432e-03  2.5386e-04  9.4494e-05  0:00:41  440
  3980  1.7857e-03  3.3267e-04  1.4288e-04  1.7560e-03  2.5393e-04  9.4230e-05  0:00:33  439

  iter  continuity  x-velocity  y-velocity      energy           k       omega     time/iter
  3981  1.7980e-03  3.3255e-04  1.4188e-04  1.7685e-03  2.5397e-04  9.3958e-05  0:00:26  438
  3982  1.8103e-03  3.3426e-04  1.4100e-04  1.7810e-03  2.5394e-04  9.3660e-05  0:00:21  437
  3983  1.8226e-03  3.3677e-04  1.3999e-04  1.7934e-03  2.5383e-04  9.3326e-05  0:01:44  436
  3984  1.8345e-03  3.3967e-04  1.3886e-04  1.8054e-03  2.5374e-04  9.3002e-05  0:01:23  435
  3985  1.8459e-03  3.3531e-04  1.3802e-04  1.8169e-03  2.5363e-04  9.2708e-05  0:01:06  434
  3986  1.8570e-03  3.2934e-04  1.3784e-04  1.8281e-03  2.5353e-04  9.2405e-05  0:00:53  433
  3987  1.8680e-03  3.2791e-04  1.3764e-04  1.8392e-03  2.5340e-04  9.2104e-05  0:00:42  432
  3988  1.8788e-03  3.2771e-04  1.3732e-04  1.8501e-03  2.5321e-04  9.1780e-05  0:00:34  431
  3989  1.8895e-03  3.2843e-04  1.3697e-04  1.8610e-03  2.5293e-04  9.1410e-05  0:00:27  430
  3990  1.8999e-03  3.2898e-04  1.3700e-04  1.8715e-03  2.5262e-04  9.1010e-05  0:00:21  429
  3991  1.9101e-03  3.2818e-04  1.3752e-04  1.8817e-03  2.5224e-04  9.0592e-05  0:00:17  428

  iter  continuity  x-velocity  y-velocity      energy           k       omega     time/iter
  3992  1.9201e-03  3.2813e-04  1.3847e-04  1.8918e-03  2.5180e-04  9.0166e-05  0:00:14  427
  3993  1.9302e-03  3.3485e-04  1.3899e-04  1.9020e-03  2.5129e-04  8.9754e-05  0:01:36  426
  3994  1.9404e-03  3.3603e-04  1.3881e-04  1.9122e-03  2.5071e-04  8.9327e-05  0:01:17  425
  3995  1.9503e-03  3.4698e-04  1.3840e-04  1.9222e-03  2.5007e-04  8.8906e-05  0:01:01  424
  3996  1.9596e-03  3.5234e-04  1.3799e-04  1.9315e-03  2.4941e-04  8.8492e-05  0:00:49  423
  3997  1.9684e-03  3.4524e-04  1.3761e-04  1.9404e-03  2.4871e-04  8.8084e-05  0:00:39  422
  3998  1.9768e-03  3.4079e-04  1.3684e-04  1.9488e-03  2.4796e-04  8.7664e-05  0:00:31  421
  3999  1.9850e-03  3.4698e-04  1.3674e-04  1.9571e-03  2.4716e-04  8.7230e-05  0:00:25  420
  4000  1.9931e-03  3.5153e-04  1.3637e-04  1.9652e-03  2.4635e-04  8.6834e-05  0:00:20  419
  4001  2.0004e-03  3.4539e-04  1.3616e-04  1.9726e-03  2.4549e-04  8.6477e-05  0:00:16  418
  4002  2.0075e-03  3.3862e-04  1.3618e-04  1.9797e-03  2.4464e-04  8.6147e-05  0:01:36  417

  iter  continuity  x-velocity  y-velocity      energy           k       omega     time/iter
  4003  2.0143e-03  3.3096e-04  1.3569e-04  1.9866e-03  2.4375e-04  8.5819e-05  0:01:17  416
  4004  2.0211e-03  3.2783e-04  1.3471e-04  1.9935e-03  2.4278e-04  8.5463e-05  0:01:01  415
  4005  2.0277e-03  3.2464e-04  1.3425e-04  2.0002e-03  2.4171e-04  8.5095e-05  0:00:49  414
  4006  2.0341e-03  3.2021e-04  1.3235e-04  2.0066e-03  2.4054e-04  8.4723e-05  0:00:39  413
  4007  2.0402e-03  3.1447e-04  1.3034e-04  2.0128e-03  2.3928e-04  8.4321e-05  0:00:31  412
  4008  2.0461e-03  3.0651e-04  1.2860e-04  2.0187e-03  2.3795e-04  8.3961e-05  0:00:25  411
  4009  2.0519e-03  3.0368e-04  1.2740e-04  2.0246e-03  2.3658e-04  8.3631e-05  0:00:20  410
  4010  2.0575e-03  3.0141e-04  1.2656e-04  2.0301e-03  2.3518e-04  8.3290e-05  0:00:16  409
  4011  2.0628e-03  2.9968e-04  1.2521e-04  2.0354e-03  2.3376e-04  8.2938e-05  0:00:13  408
  4012  2.0675e-03  2.9614e-04  1.2358e-04  2.0401e-03  2.3236e-04  8.2574e-05  0:01:31  407
  4013  2.0718e-03  2.9407e-04  1.2207e-04  2.0444e-03  2.3094e-04  8.2162e-05  0:01:13  406

  iter  continuity  x-velocity  y-velocity      energy           k       omega     time/iter
  4014  2.0758e-03  2.9491e-04  1.2090e-04  2.0483e-03  2.2945e-04  8.1710e-05  0:00:58  405
  4015  2.0793e-03  2.9704e-04  1.1984e-04  2.0518e-03  2.2791e-04  8.1263e-05  0:00:46  404
  4016  2.0824e-03  2.9804e-04  1.1863e-04  2.0549e-03  2.2633e-04  8.0823e-05  0:00:37  403
  4017  2.0848e-03  2.9832e-04  1.1774e-04  2.0573e-03  2.2473e-04  8.0392e-05  0:00:30  402
  4018  2.0868e-03  2.9965e-04  1.1674e-04  2.0593e-03  2.2309e-04  7.9969e-05  0:00:24  401
  4019  2.0879e-03  2.9728e-04  1.1516e-04  2.0604e-03  2.2141e-04  7.9526e-05  0:00:19  400
  4020  2.0886e-03  2.9444e-04  1.1368e-04  2.0611e-03  2.1972e-04  7.9104e-05  0:00:15  399
  4021  2.0890e-03  2.9612e-04  1.1284e-04  2.0615e-03  2.1802e-04  7.8701e-05  0:00:12  398
  4022  2.0889e-03  2.9726e-04  1.1291e-04  2.0614e-03  2.1635e-04  7.8349e-05  0:00:10  397
  4023  2.0884e-03  2.9672e-04  1.1398e-04  2.0608e-03  2.1468e-04  7.8018e-05  0:01:27  396
  4024  2.0873e-03  2.9575e-04  1.1516e-04  2.0597e-03  2.1297e-04  7.7713e-05  0:01:09  395

  iter  continuity  x-velocity  y-velocity      energy           k       omega     time/iter
  4025  2.0857e-03  2.9533e-04  1.1663e-04  2.0581e-03  2.1130e-04  7.7443e-05  0:00:55  394
  4026  2.0839e-03  2.9987e-04  1.1818e-04  2.0563e-03  2.0961e-04  7.7199e-05  0:00:44  393
  4027  2.0815e-03  3.0143e-04  1.1835e-04  2.0538e-03  2.0783e-04  7.6931e-05  0:00:35  392
  4028  2.0786e-03  2.9986e-04  1.1693e-04  2.0509e-03  2.0603e-04  7.6662e-05  0:00:28  391
  4029  2.0753e-03  2.9647e-04  1.1536e-04  2.0477e-03  2.0421e-04  7.6382e-05  0:00:22  390
  4030  2.0716e-03  2.9553e-04  1.1385e-04  2.0440e-03  2.0231e-04  7.6083e-05  0:00:18  389
  4031  2.0675e-03  2.9413e-04  1.1243e-04  2.0399e-03  2.0043e-04  7.5786e-05  0:00:14  388
  4032  2.0629e-03  2.9435e-04  1.1121e-04  2.0354e-03  1.9854e-04  7.5498e-05  0:00:11  387
  4033  2.0581e-03  2.9374e-04  1.0949e-04  2.0306e-03  1.9662e-04  7.5236e-05  0:01:26  386
  4034  2.0530e-03  2.9245e-04  1.0809e-04  2.0255e-03  1.9466e-04  7.4984e-05  0:01:09  385
  4035  2.0476e-03  2.9464e-04  1.0678e-04  2.0201e-03  1.9270e-04  7.4749e-05  0:00:55  384

  iter  continuity  x-velocity  y-velocity      energy           k       omega     time/iter
  4036  2.0418e-03  2.9510e-04  1.0558e-04  2.0143e-03  1.9076e-04  7.4515e-05  0:00:44  383
  4037  2.0357e-03  2.9435e-04  1.0432e-04  2.0083e-03  1.8884e-04  7.4295e-05  0:00:35  382
  4038  2.0292e-03  2.9321e-04  1.0291e-04  2.0018e-03  1.8688e-04  7.4062e-05  0:00:28  381
  4039  2.0224e-03  2.9156e-04  1.0217e-04  1.9949e-03  1.8491e-04  7.3848e-05  0:00:22  380
  4040  2.0152e-03  2.8863e-04  1.0150e-04  1.9877e-03  1.8292e-04  7.3690e-05  0:00:18  379
  4041  2.0079e-03  2.8893e-04  1.0164e-04  1.9804e-03  1.8094e-04  7.3551e-05  0:00:14  378
  4042  2.0003e-03  2.9082e-04  1.0228e-04  1.9728e-03  1.7892e-04  7.3429e-05  0:01:27  377
  4043  1.9924e-03  2.9358e-04  1.0318e-04  1.9649e-03  1.7688e-04  7.3316e-05  0:01:09  376
  4044  1.9842e-03  2.9753e-04  1.0397e-04  1.9566e-03  1.7480e-04  7.3230e-05  0:00:55  375
  4045  1.9754e-03  2.9472e-04  1.0614e-04  1.9478e-03  1.7272e-04  7.3174e-05  0:00:44  374
  4046  1.9664e-03  2.9546e-04  1.0743e-04  1.9388e-03  1.7065e-04  7.3118e-05  0:00:35  373

  iter  continuity  x-velocity  y-velocity      energy           k       omega     time/iter
  4047  1.9569e-03  2.8802e-04  1.0797e-04  1.9294e-03  1.6861e-04  7.3056e-05  0:00:28  372
  4048  1.9474e-03  2.8525e-04  1.0859e-04  1.9198e-03  1.6664e-04  7.2986e-05  0:00:22  371
  4049  1.9376e-03  2.8303e-04  1.1093e-04  1.9100e-03  1.6469e-04  7.2956e-05  0:00:18  370
  4050  1.9279e-03  2.8582e-04  1.1427e-04  1.9003e-03  1.6280e-04  7.2973e-05  0:00:14  369
  4051  1.9181e-03  2.8779e-04  1.1725e-04  1.8903e-03  1.6091e-04  7.3007e-05  0:00:11  368
  4052  1.9080e-03  2.8793e-04  1.1936e-04  1.8801e-03  1.5905e-04  7.3039e-05  0:00:09  367
  4053  1.8974e-03  2.8704e-04  1.1871e-04  1.8696e-03  1.5720e-04  7.3104e-05  0:01:20  366
  4054  1.8868e-03  2.8926e-04  1.1778e-04  1.8589e-03  1.5534e-04  7.3158e-05  0:01:04  365
  4055  1.8759e-03  2.9050e-04  1.1584e-04  1.8481e-03  1.5346e-04  7.3166e-05  0:00:51  364
  4056  1.8649e-03  2.9454e-04  1.1349e-04  1.8372e-03  1.5154e-04  7.3130e-05  0:00:41  363
  4057  1.8534e-03  2.9369e-04  1.1122e-04  1.8258e-03  1.4966e-04  7.3002e-05  0:00:33  362

  iter  continuity  x-velocity  y-velocity      energy           k       omega     time/iter
  4058  1.8417e-03  2.9424e-04  1.0895e-04  1.8142e-03  1.4782e-04  7.2828e-05  0:00:26  361
  4059  1.8297e-03  2.9103e-04  1.0697e-04  1.8023e-03  1.4593e-04  7.2639e-05  0:00:21  360
  4060  1.8173e-03  2.8454e-04  1.0439e-04  1.7900e-03  1.4406e-04  7.2475e-05  0:00:17  359
  4061  1.8049e-03  2.8391e-04  1.0145e-04  1.7777e-03  1.4221e-04  7.2314e-05  0:00:13  358
  4062  1.7924e-03  2.8437e-04  9.7917e-05  1.7652e-03  1.4035e-04  7.2216e-05  0:00:11  357
  4063  1.7796e-03  2.8335e-04  9.5424e-05  1.7525e-03  1.3853e-04  7.2133e-05  0:01:20  356
  4064  1.7665e-03  2.7986e-04  9.3288e-05  1.7394e-03  1.3676e-04  7.2040e-05  0:01:04  355
  4065  1.7530e-03  2.7064e-04  9.0824e-05  1.7260e-03  1.3504e-04  7.1947e-05  0:00:51  354
  4066  1.7394e-03  2.6485e-04  8.9498e-05  1.7124e-03  1.3343e-04  7.1857e-05  0:00:40  353
  4067  1.7256e-03  2.6124e-04  8.8933e-05  1.6986e-03  1.3190e-04  7.1706e-05  0:00:32  352
  4068  1.7117e-03  2.5930e-04  8.9065e-05  1.6847e-03  1.3040e-04  7.1565e-05  0:00:26  351

  iter  continuity  x-velocity  y-velocity      energy           k       omega     time/iter
  4069  1.6978e-03  2.5836e-04  8.9775e-05  1.6707e-03  1.2894e-04  7.1444e-05  0:00:21  350
  4070  1.6836e-03  2.6026e-04  9.1290e-05  1.6565e-03  1.2760e-04  7.1335e-05  0:00:16  349
  4071  1.6692e-03  2.6733e-04  9.4310e-05  1.6421e-03  1.2635e-04  7.1278e-05  0:00:13  348
  4072  1.6548e-03  2.7482e-04  9.6476e-05  1.6277e-03  1.2515e-04  7.1269e-05  0:00:10  347
  4073  1.6401e-03  2.7870e-04  9.9306e-05  1.6130e-03  1.2406e-04  7.1285e-05  0:00:08  346
  4074  1.6249e-03  2.8037e-04  1.0082e-04  1.5979e-03  1.2298e-04  7.1301e-05  0:01:16  345
  4075  1.6098e-03  2.8598e-04  1.0104e-04  1.5828e-03  1.2188e-04  7.1269e-05  0:01:00  344
  4076  1.5943e-03  2.8270e-04  9.8698e-05  1.5674e-03  1.2079e-04  7.1243e-05  0:00:48  343
  4077  1.5790e-03  2.8863e-04  9.6486e-05  1.5521e-03  1.1972e-04  7.1183e-05  0:00:38  342
  4078  1.5632e-03  2.8569e-04  9.4786e-05  1.5364e-03  1.1865e-04  7.1081e-05  0:00:31  341
  4079  1.5473e-03  2.7924e-04  9.3686e-05  1.5205e-03  1.1767e-04  7.0962e-05  0:00:24  340

  iter  continuity  x-velocity  y-velocity      energy           k       omega     time/iter
  4080  1.5313e-03  2.7310e-04  9.3147e-05  1.5046e-03  1.1680e-04  7.0779e-05  0:00:19  339
  4081  1.5154e-03  2.6991e-04  9.2650e-05  1.4888e-03  1.1598e-04  7.0577e-05  0:00:16  338
  4082  1.4994e-03  2.6288e-04  9.1068e-05  1.4728e-03  1.1524e-04  7.0355e-05  0:00:12  337
  4083  1.4838e-03  2.6439e-04  9.0088e-05  1.4573e-03  1.1454e-04  7.0139e-05  0:00:10  336
  4084  1.4681e-03  2.6165e-04  8.9595e-05  1.4416e-03  1.1392e-04  6.9918e-05  0:01:15  335
  4085  1.4523e-03  2.6131e-04  8.9664e-05  1.4259e-03  1.1337e-04  6.9737e-05  0:01:00  334
  4086  1.4368e-03  2.6131e-04  8.9542e-05  1.4104e-03  1.1291e-04  6.9593e-05  0:00:48  333
  4087  1.4214e-03  2.6556e-04  8.9011e-05  1.3950e-03  1.1254e-04  6.9509e-05  0:00:38  332
  4088  1.4059e-03  2.6679e-04  8.8223e-05  1.3796e-03  1.1231e-04  6.9481e-05  0:00:30  331
  4089  1.3902e-03  2.6117e-04  8.7841e-05  1.3639e-03  1.1221e-04  6.9471e-05  0:00:24  330
  4090  1.3745e-03  2.5147e-04  8.8215e-05  1.3483e-03  1.1223e-04  6.9399e-05  0:00:19  329

  iter  continuity  x-velocity  y-velocity      energy           k       omega     time/iter
  4091  1.3594e-03  2.5709e-04  8.7650e-05  1.3331e-03  1.1240e-04  6.9329e-05  0:00:15  328
  4092  1.3443e-03  2.5993e-04  8.6376e-05  1.3181e-03  1.1272e-04  6.9227e-05  0:00:12  327
  4093  1.3291e-03  2.6238e-04  8.5327e-05  1.3028e-03  1.1318e-04  6.9141e-05  0:00:10  326
  4094  1.3143e-03  2.7268e-04  8.4559e-05  1.2879e-03  1.1383e-04  6.9050e-05  0:01:13  325
  4095  1.2991e-03  2.7656e-04  8.4617e-05  1.2729e-03  1.1461e-04  6.8933e-05  0:00:58  324
  4096  1.2836e-03  2.7447e-04  8.4668e-05  1.2574e-03  1.1553e-04  6.8779e-05  0:00:46  323
  4097  1.2680e-03  2.6901e-04  8.3930e-05  1.2420e-03  1.1655e-04  6.8646e-05  0:00:37  322
  4098  1.2526e-03  2.6087e-04  8.3448e-05  1.2268e-03  1.1764e-04  6.8538e-05  0:00:29  321
  4099  1.2381e-03  2.6157e-04  8.2807e-05  1.2123e-03  1.1877e-04  6.8409e-05  0:00:23  320
  4100  1.2241e-03  2.6976e-04  8.3011e-05  1.1984e-03  1.1992e-04  6.8311e-05  0:00:19  319
  4101  1.2102e-03  2.7093e-04  8.3261e-05  1.1844e-03  1.2112e-04  6.8195e-05  0:00:15  318

  iter  continuity  x-velocity  y-velocity      energy           k       omega     time/iter
  4102  1.1963e-03  2.6930e-04  8.3128e-05  1.1706e-03  1.2231e-04  6.8091e-05  0:00:12  317
  4103  1.1825e-03  2.6448e-04  8.3025e-05  1.1568e-03  1.2349e-04  6.7978e-05  0:00:10  316
  4104  1.1691e-03  2.6304e-04  8.2689e-05  1.1433e-03  1.2468e-04  6.7844e-05  0:01:11  315
  4105  1.1558e-03  2.6347e-04  8.2144e-05  1.1301e-03  1.2587e-04  6.7691e-05  0:00:56  314
  4106  1.1423e-03  2.5856e-04  8.1785e-05  1.1164e-03  1.2703e-04  6.7539e-05  0:00:45  313
  4107  1.1287e-03  2.4981e-04  8.2136e-05  1.1028e-03  1.2820e-04  6.7335e-05  0:00:36  312
  4108  1.1153e-03  2.4003e-04  8.3013e-05  1.0894e-03  1.2934e-04  6.7193e-05  0:00:29  311
  4109  1.1023e-03  2.3625e-04  8.3841e-05  1.0764e-03  1.3047e-04  6.6998e-05  0:00:23  310
  4110  1.0897e-03  2.3588e-04  8.4549e-05  1.0638e-03  1.3157e-04  6.6842e-05  0:00:18  309
  4111  1.0774e-03  2.4116e-04  8.5035e-05  1.0515e-03  1.3265e-04  6.6694e-05  0:00:14  308
  4112  1.0657e-03  2.5105e-04  8.5504e-05  1.0398e-03  1.3368e-04  6.6538e-05  0:01:13  307

  iter  continuity  x-velocity  y-velocity      energy           k       omega     time/iter
  4113  1.0540e-03  2.6103e-04  8.5904e-05  1.0282e-03  1.3466e-04  6.6379e-05  0:00:58  306
  4114  1.0425e-03  2.7131e-04  8.5229e-05  1.0167e-03  1.3561e-04  6.6223e-05  0:00:46  305
  4115  1.0309e-03  2.8221e-04  8.4975e-05  1.0051e-03  1.3654e-04  6.6080e-05  0:00:37  304
  4116  1.0205e-03  2.9382e-04  8.5753e-05  9.9473e-04  1.3744e-04  6.5937e-05  0:00:29  303
  4117  1.0090e-03  2.9874e-04  8.7118e-05  9.8328e-04  1.3833e-04  6.5806e-05  0:00:24  302
  4118  9.9763e-04  2.9911e-04  8.7758e-05  9.7196e-04  1.3922e-04  6.5695e-05  0:00:19  301
! 4118 solution is converged

> /plot/plot yes loading.txt yes no no absolute-pressure yes 1 0 upper-blade ()

> exit 
Posting ANSYS Product Improvement Program performance data 
Done.
yes
