
              Welcome to ANSYS Fluent 2021 R2

              Copyright 1987-2021 ANSYS, Inc. All Rights Reserved.
              Unauthorized use, distribution or duplication is prohibited.
              This product is subject to U.S. laws governing export and re-export.
              For full Legal Notice, see documentation.

Build Time: May 28 2021 13:54:56 EDT  Build Id: 10201  
 

     --------------------------------------------------------------
     This is an academic version of ANSYS FLUENT. Usage of this product
     license is limited to the terms and conditions specified in your ANSYS
     license form, additional terms section.
     --------------------------------------------------------------
Host spawning Node 0 on machine "WL-CH-009" (win64).

-------------------------------------------------------------------------------
ID    Hostname   Core   O.S.         PID    Vendor                       
-------------------------------------------------------------------------------
n31   WL-CH-009  32/36  Windows-x64  35032  Intel(R) Xeon(R) W-2295      
n30   WL-CH-009  31/36  Windows-x64  24004  Intel(R) Xeon(R) W-2295      
n29   WL-CH-009  30/36  Windows-x64  43912  Intel(R) Xeon(R) W-2295      
n28   WL-CH-009  29/36  Windows-x64  25216  Intel(R) Xeon(R) W-2295      
n27   WL-CH-009  28/36  Windows-x64  23956  Intel(R) Xeon(R) W-2295      
n26   WL-CH-009  27/36  Windows-x64  17232  Intel(R) Xeon(R) W-2295      
n25   WL-CH-009  26/36  Windows-x64  29076  Intel(R) Xeon(R) W-2295      
n24   WL-CH-009  25/36  Windows-x64  40684  Intel(R) Xeon(R) W-2295      
n23   WL-CH-009  24/36  Windows-x64  39432  Intel(R) Xeon(R) W-2295      
n22   WL-CH-009  23/36  Windows-x64  30012  Intel(R) Xeon(R) W-2295      
n21   WL-CH-009  22/36  Windows-x64  5584   Intel(R) Xeon(R) W-2295      
n20   WL-CH-009  21/36  Windows-x64  38860  Intel(R) Xeon(R) W-2295      
n19   WL-CH-009  20/36  Windows-x64  42464  Intel(R) Xeon(R) W-2295      
n18   WL-CH-009  19/36  Windows-x64  38836  Intel(R) Xeon(R) W-2295      
n17   WL-CH-009  18/36  Windows-x64  3340   Intel(R) Xeon(R) W-2295      
n16   WL-CH-009  17/36  Windows-x64  19380  Intel(R) Xeon(R) W-2295      
n15   WL-CH-009  16/36  Windows-x64  31096  Intel(R) Xeon(R) W-2295      
n14   WL-CH-009  15/36  Windows-x64  40956  Intel(R) Xeon(R) W-2295      
n13   WL-CH-009  14/36  Windows-x64  24748  Intel(R) Xeon(R) W-2295      
n12   WL-CH-009  13/36  Windows-x64  12460  Intel(R) Xeon(R) W-2295      
-------------------------------------------------------------------------------
ID    Hostname   Core   O.S.         PID    Vendor                       
-------------------------------------------------------------------------------
n11   WL-CH-009  12/36  Windows-x64  38920  Intel(R) Xeon(R) W-2295      
n10   WL-CH-009  11/36  Windows-x64  36840  Intel(R) Xeon(R) W-2295      
n9    WL-CH-009  10/36  Windows-x64  25204  Intel(R) Xeon(R) W-2295      
n8    WL-CH-009  9/36   Windows-x64  22184  Intel(R) Xeon(R) W-2295      
n7    WL-CH-009  8/36   Windows-x64  33684  Intel(R) Xeon(R) W-2295      
n6    WL-CH-009  7/36   Windows-x64  22244  Intel(R) Xeon(R) W-2295      
n5    WL-CH-009  6/36   Windows-x64  45088  Intel(R) Xeon(R) W-2295      
n4    WL-CH-009  5/36   Windows-x64  26388  Intel(R) Xeon(R) W-2295      
n3    WL-CH-009  4/36   Windows-x64  45692  Intel(R) Xeon(R) W-2295      
n2    WL-CH-009  3/36   Windows-x64  45768  Intel(R) Xeon(R) W-2295      
n1    WL-CH-009  2/36   Windows-x64  12208  Intel(R) Xeon(R) W-2295      
n0*   WL-CH-009  1/36   Windows-x64  35960  Intel(R) Xeon(R) W-2295      
host  WL-CH-009         Windows-x64  39952  Intel(R) Xeon(R) W-2295      

MPI Option Selected: intel
Selected system interconnect: default
-------------------------------------------------------------------------------

Cleanup script file is E:\\MATLAB\\RANS_optimisation\\cleanup-fluent-WL-CH-009-39952.bat

Posting ANSYS Product Improvement Program startup data
Done.

Reading journal file E:\MATLAB\RANS_optimisation\run16\fluent_input.jou...

> /sync-chdir E:\MATLAB\RANS_optimisation\run16

> /file/read-case "grid.msh"
Reading "grid.msh"...

Buffering for file scan...

  112722 quadrilateral cells, zone  9.
  224998 2D interior faces, zone  2.
Warning: Reversing 238 faces, zone  2.
     237 2D pressure-inlet faces, zone  3.
Warning: Reversing 237 faces, zone  3.
     477 2D pressure-outlet faces, zone  4.
Warning: Reversing 477 faces, zone  4.
     477 2D pressure-outlet faces, zone  5.
     207 2D pressure-outlet faces, zone  6.
     254 2D wall faces, zone  7.
Warning: Reversing 15 faces, zone  7.
     252 2D wall faces, zone  8.
Warning: Reversing 223 faces, zone  8.
  113674 nodes.

Building...
     mesh
	auto partitioning mesh by Metis (fast),
	distributing mesh
		parts................................,
		faces................................,
		nodes................................,
		cells................................,
        bandwidth reduction using Reverse Cuthill-McKee: 2716/83 = 32.7229
     materials,
     interface,
     domains,
     zones,
	fluid-9
	wall-8
	wall-7
	pressure-outlet-6
	pressure-outlet-5
	pressure-outlet-4
	pressure-inlet-3
	interior-2
     parallel,
Done.

Preparing mesh for display...
Done.
 

> /define/boundary-conditions/modify-zones/zone-name 3 inlet 

> /define/boundary-conditions/modify-zones/zone-name 4 upper 

> /define/boundary-conditions/modify-zones/zone-name 5 lower 

> /define/boundary-conditions/modify-zones/zone-name 6 outlet

> /define/boundary-conditions/modify-zones/zone-name 7 upper-blade

> /define/boundary-conditions/modify-zones/zone-name 8 lower-blade

> /define/materials/change-create air air air is a fluid
yes 
Density
ideal-gas no data required.

yes 
Cp (Specific Heat)
constant 1005 
yes 
Thermal Conductivity
expression "DynamicViscosity*1005 [J/(kg K)]/0.72"
 yes 
Viscosity
sutherland three-coefficient-method 5.83247e-04 273 110.4 
no no no

Note: Enabling energy equation as required by material density method.

> /define/operating-conditions/operating-pressure 0

> /define/models/viscous/kw-sst? yes

> /define/boundary-conditions/zone-type inlet pressure-inlet 

> /define/boundary-conditions/pressure-inlet (inlet)
inlet yes no 74575.2 no 46984 no 300 no yes no no yes 0.5 1

> /define/boundary-conditions/zone-type outlet pressure-outlet 

> /define/boundary-conditions/bc-settings/pressure-outlet 0. 65 

> /define/boundary-conditions/pressure-outlet (outlet upper lower)
outlet yes no 46984 no 300 no yes no no yes 0.5 1 yes no no

> /define/boundary-conditions/copy-bc outlet (upper lower)Copy outlet boundary conditions to lower
Copy outlet boundary conditions to upper


> /define/boundary-conditions/wall (upper-blade lower-blade)
upper-blade 0 no 0 no no no 0 no no no no 0 no 0.5 no 1

> /define/boundary-conditions/copy-bc upper-blade (lower-blade)Copy upper-blade boundary conditions to lower-blade


> /define/models/solver/densit-based-implicit yes

> /file/read-data E:\MATLAB\RANS_optimisation\clean.dat

Reading "E:\MATLAB\RANS_optimisation\clean.dat"...



Parallel variables...
Done.

> ;/solve/initialize/initialize-flow
;/solve/initialize/compute-defaults/pressure-inlet inlet
;/solve/initialize/initialize-flow yes
;/solve/initialize/hyb-initialization
/solve/iterate 2000

  iter  continuity  x-velocity  y-velocity      energy           k       omega     time/iter
  2419  9.9521e-04  3.5719e-04  6.8654e-05  9.7828e-04  1.7105e-04  4.2984e-05  0:00:00 2000
  2420  8.9973e-02  5.9920e-02  5.4586e-02  8.9979e-02  3.9879e-03  1.1271e-02  0:00:00 1999
  2421  7.5458e-02  4.5322e-02  5.2474e-02  7.5865e-02  3.8078e-03  9.3342e-03  0:00:00 1998
  2422  5.7914e-02  3.1764e-02  5.0252e-02  5.8164e-02  3.6288e-03  7.3635e-03  0:00:00 1997
  2423  4.3792e-02  2.3799e-02  4.3784e-02  4.3520e-02  3.4492e-03  5.9994e-03  0:00:00 1996
  2424  3.4149e-02  1.9811e-02  3.5724e-02  3.3563e-02  3.2683e-03  5.5460e-03  0:33:15 1995
  2425  2.8115e-02  1.7711e-02  2.8051e-02  2.7554e-02  3.0872e-03  5.1702e-03  0:26:35 1994
  2426  2.4571e-02  1.6267e-02  2.1862e-02  2.4192e-02  2.9103e-03  4.7522e-03  0:21:16 1993
  2427  2.2662e-02  1.5051e-02  1.7357e-02  2.2464e-02  2.7368e-03  4.2926e-03  0:17:00 1992
  2428  2.1561e-02  1.3911e-02  1.4311e-02  2.1492e-02  2.5754e-03  3.8723e-03  0:13:36 1991
  2429  2.0687e-02  1.2785e-02  1.2396e-02  2.0697e-02  2.4299e-03  3.4170e-03  0:10:52 1990

  iter  continuity  x-velocity  y-velocity      energy           k       omega     time/iter
  2430  1.9755e-02  1.1647e-02  1.1228e-02  1.9803e-02  2.2993e-03  2.9806e-03  0:08:41 1989
  2431  1.8692e-02  1.0501e-02  1.0492e-02  1.8749e-02  2.1846e-03  2.6374e-03  0:06:57 1988
  2432  1.7526e-02  9.3651e-03  9.9576e-03  1.7569e-02  2.0845e-03  2.4293e-03  0:05:33 1987
  2433  1.6342e-02  8.3001e-03  9.4900e-03  1.6354e-02  1.9968e-03  2.2809e-03  0:04:27 1986
  2434  1.5213e-02  7.3390e-03  9.0201e-03  1.5182e-02  1.9190e-03  2.1670e-03  0:10:10 1985
  2435  1.4195e-02  6.5482e-03  8.5336e-03  1.4113e-02  1.8497e-03  2.0860e-03  0:08:08 1984
  2436  1.3312e-02  5.9606e-03  8.0369e-03  1.3179e-02  1.7878e-03  2.0477e-03  0:06:30 1983
  2437  1.2578e-02  5.6261e-03  7.5343e-03  1.2395e-02  1.7312e-03  2.0264e-03  0:05:12 1982
  2438  1.1983e-02  5.5232e-03  7.0475e-03  1.1756e-02  1.6798e-03  2.0208e-03  0:04:09 1981
  2439  1.1513e-02  5.6201e-03  6.5941e-03  1.1248e-02  1.6330e-03  2.0286e-03  0:03:19 1980
  2440  1.1147e-02  5.8261e-03  6.1837e-03  1.0849e-02  1.5902e-03  2.0382e-03  0:02:39 1979

  iter  continuity  x-velocity  y-velocity      energy           k       omega     time/iter
  2441  1.0891e-02  6.0730e-03  5.8281e-03  1.0566e-02  1.5513e-03  2.0425e-03  0:02:08 1978
  2442  1.0740e-02  6.3142e-03  5.5328e-03  1.0391e-02  1.5163e-03  2.0367e-03  0:01:42 1977
  2443  1.0718e-02  6.5144e-03  5.2964e-03  1.0352e-02  1.4844e-03  2.0319e-03  0:01:22 1976
  2444  1.0848e-02  6.6610e-03  5.1177e-03  1.0468e-02  1.4555e-03  2.0242e-03  0:07:40 1975
  2445  1.1172e-02  6.7467e-03  4.9890e-03  1.0783e-02  1.4302e-03  2.0219e-03  0:06:08 1974
  2446  1.1695e-02  6.7685e-03  4.8976e-03  1.1300e-02  1.4085e-03  2.0162e-03  0:04:54 1973
  2447  1.2401e-02  6.7361e-03  4.8380e-03  1.2004e-02  1.3899e-03  2.0031e-03  0:03:55 1972
  2448  1.3260e-02  6.6561e-03  4.7825e-03  1.2863e-02  1.3752e-03  1.9756e-03  0:03:08 1971
  2449  1.4252e-02  6.5407e-03  4.7213e-03  1.3858e-02  1.3633e-03  1.9350e-03  0:02:30 1970
  2450  1.5338e-02  6.4014e-03  4.6501e-03  1.4949e-02  1.3549e-03  1.8892e-03  0:02:00 1969
  2451  1.6461e-02  6.2476e-03  4.5660e-03  1.6077e-02  1.3491e-03  1.8415e-03  0:01:36 1968

  iter  continuity  x-velocity  y-velocity      energy           k       omega     time/iter
  2452  1.7564e-02  6.1032e-03  4.4612e-03  1.7188e-02  1.3448e-03  1.7971e-03  0:01:17 1967
  2453  1.8586e-02  5.9760e-03  4.3440e-03  1.8221e-02  1.3422e-03  1.7571e-03  0:01:01 1966
  2454  1.9493e-02  5.8741e-03  4.1885e-03  1.9138e-02  1.3403e-03  1.7208e-03  0:07:22 1965
  2455  2.0326e-02  5.8019e-03  4.0134e-03  1.9983e-02  1.3389e-03  1.6906e-03  0:05:54 1964
  2456  2.1046e-02  5.7625e-03  3.8233e-03  2.0717e-02  1.3377e-03  1.6661e-03  0:04:43 1963
  2457  2.1646e-02  5.7601e-03  3.6234e-03  2.1331e-02  1.3373e-03  1.6485e-03  0:03:46 1962
  2458  2.2096e-02  5.7832e-03  3.4357e-03  2.1797e-02  1.3372e-03  1.6378e-03  0:03:01 1961
  2459  2.2354e-02  5.8235e-03  3.2686e-03  2.2071e-02  1.3382e-03  1.6295e-03  0:02:25 1960
  2460  2.2407e-02  5.8649e-03  3.1173e-03  2.2141e-02  1.3406e-03  1.6221e-03  0:01:56 1959
  2461  2.2307e-02  5.8976e-03  2.9992e-03  2.2057e-02  1.3444e-03  1.6189e-03  0:01:32 1958
  2462  2.2064e-02  5.9188e-03  2.9231e-03  2.1830e-02  1.3481e-03  1.6092e-03  0:01:14 1957

  iter  continuity  x-velocity  y-velocity      energy           k       omega     time/iter
  2463  2.1712e-02  5.9212e-03  2.8643e-03  2.1494e-02  1.3537e-03  1.6093e-03  0:00:59 1956
  2464  2.1268e-02  5.9058e-03  2.8254e-03  2.1065e-02  1.3586e-03  1.6028e-03  0:00:47 1955
  2465  2.0747e-02  5.8644e-03  2.8130e-03  2.0559e-02  1.3639e-03  1.5952e-03  0:07:09 1954
  2466  2.0136e-02  5.7947e-03  2.8189e-03  1.9961e-02  1.3700e-03  1.5849e-03  0:05:43 1953
  2467  1.9448e-02  5.6993e-03  2.8352e-03  1.9284e-02  1.3757e-03  1.5763e-03  0:04:34 1952
  2468  1.8694e-02  5.5899e-03  2.8655e-03  1.8540e-02  1.3818e-03  1.5688e-03  0:03:39 1951
  2469  1.7887e-02  5.4770e-03  2.8869e-03  1.7742e-02  1.3883e-03  1.5599e-03  0:02:55 1950
  2470  1.7036e-02  5.3522e-03  2.8983e-03  1.6898e-02  1.3931e-03  1.5519e-03  0:02:20 1949
  2471  1.6153e-02  5.2127e-03  2.9087e-03  1.6020e-02  1.3968e-03  1.5356e-03  0:01:52 1948
  2472  1.5271e-02  5.0768e-03  2.8902e-03  1.5142e-02  1.4012e-03  1.5172e-03  0:01:30 1947
  2473  1.4404e-02  4.9419e-03  2.8786e-03  1.4278e-02  1.4049e-03  1.5053e-03  0:07:41 1946

  iter  continuity  x-velocity  y-velocity      energy           k       omega     time/iter
  2474  1.3536e-02  4.8092e-03  2.8698e-03  1.3409e-02  1.4087e-03  1.4926e-03  0:06:08 1945
  2475  1.2681e-02  4.6827e-03  2.8645e-03  1.2553e-02  1.4105e-03  1.4783e-03  0:04:55 1944
  2476  1.1859e-02  4.5622e-03  2.8546e-03  1.1728e-02  1.4120e-03  1.4698e-03  0:03:56 1943
  2477  1.1085e-02  4.4440e-03  2.8409e-03  1.0953e-02  1.4143e-03  1.4644e-03  0:03:08 1942
  2478  1.0390e-02  4.3325e-03  2.8223e-03  1.0257e-02  1.4161e-03  1.4583e-03  0:02:31 1941
  2479  9.7834e-03  4.2273e-03  2.8008e-03  9.6511e-03  1.4185e-03  1.4451e-03  0:02:00 1940
  2480  9.2469e-03  4.1315e-03  2.7827e-03  9.1137e-03  1.4212e-03  1.4344e-03  0:01:36 1939
  2481  8.7873e-03  4.0431e-03  2.7454e-03  8.6526e-03  1.4248e-03  1.4247e-03  0:01:17 1938
  2482  8.4018e-03  3.9577e-03  2.7158e-03  8.2655e-03  1.4284e-03  1.4143e-03  0:07:29 1937
  2483  8.0869e-03  3.8727e-03  2.6931e-03  7.9488e-03  1.4329e-03  1.4102e-03  0:05:59 1936
  2484  7.8497e-03  3.7950e-03  2.6762e-03  7.7108e-03  1.4362e-03  1.4030e-03  0:04:47 1935

  iter  continuity  x-velocity  y-velocity      energy           k       omega     time/iter
  2485  7.6900e-03  3.7242e-03  2.6448e-03  7.5519e-03  1.4403e-03  1.3993e-03  0:03:50 1934
  2486  7.6016e-03  3.6584e-03  2.6114e-03  7.4653e-03  1.4449e-03  1.3964e-03  0:03:04 1933
  2487  7.5765e-03  3.5957e-03  2.5757e-03  7.4431e-03  1.4509e-03  1.3917e-03  0:02:27 1932
  2488  7.6034e-03  3.5435e-03  2.5400e-03  7.4733e-03  1.4575e-03  1.3882e-03  0:01:57 1931
  2489  7.6617e-03  3.4917e-03  2.5000e-03  7.5332e-03  1.4634e-03  1.3854e-03  0:01:34 1930
  2490  7.7475e-03  3.4371e-03  2.4596e-03  7.6200e-03  1.4691e-03  1.3824e-03  0:01:15 1929
  2491  7.8564e-03  3.3895e-03  2.4210e-03  7.7302e-03  1.4754e-03  1.3668e-03  0:01:00 1928
  2492  7.9878e-03  3.3494e-03  2.3818e-03  7.8635e-03  1.4820e-03  1.3600e-03  0:07:13 1927
  2493  8.1188e-03  3.3170e-03  2.3374e-03  7.9961e-03  1.4891e-03  1.3524e-03  0:05:47 1926
  2494  8.2557e-03  3.2830e-03  2.2893e-03  8.1356e-03  1.4955e-03  1.3478e-03  0:04:37 1925
  2495  8.3933e-03  3.2567e-03  2.2359e-03  8.2749e-03  1.5010e-03  1.3399e-03  0:03:42 1924

  iter  continuity  x-velocity  y-velocity      energy           k       omega     time/iter
  2496  8.5297e-03  3.2370e-03  2.1813e-03  8.4123e-03  1.5070e-03  1.3297e-03  0:02:57 1923
  2497  8.6664e-03  3.2154e-03  2.1247e-03  8.5498e-03  1.5130e-03  1.3227e-03  0:02:22 1922
  2498  8.7993e-03  3.1938e-03  2.0709e-03  8.6839e-03  1.5199e-03  1.3128e-03  0:01:53 1921
  2499  8.9242e-03  3.1783e-03  2.0250e-03  8.8104e-03  1.5263e-03  1.3009e-03  0:01:31 1920
  2500  9.0376e-03  3.1648e-03  1.9835e-03  8.9253e-03  1.5324e-03  1.2882e-03  0:01:12 1919
  2501  9.1332e-03  3.1555e-03  1.9392e-03  9.0222e-03  1.5388e-03  1.2767e-03  0:07:21 1918
  2502  9.2130e-03  3.1446e-03  1.8931e-03  9.1033e-03  1.5454e-03  1.2672e-03  0:05:53 1917
  2503  9.2752e-03  3.1283e-03  1.8529e-03  9.1672e-03  1.5522e-03  1.2594e-03  0:04:42 1916
  2504  9.3223e-03  3.1128e-03  1.8069e-03  9.2166e-03  1.5590e-03  1.2466e-03  0:03:46 1915
  2505  9.3541e-03  3.0963e-03  1.7626e-03  9.2510e-03  1.5668e-03  1.2346e-03  0:03:00 1914
  2506  9.3667e-03  3.0825e-03  1.7249e-03  9.2656e-03  1.5747e-03  1.2255e-03  0:02:24 1913

  iter  continuity  x-velocity  y-velocity      energy           k       omega     time/iter
  2507  9.3630e-03  3.0657e-03  1.6877e-03  9.2641e-03  1.5828e-03  1.2160e-03  0:01:55 1912
  2508  9.3440e-03  3.0479e-03  1.6569e-03  9.2474e-03  1.5905e-03  1.2052e-03  0:01:32 1911
  2509  9.3067e-03  3.0351e-03  1.6325e-03  9.2126e-03  1.5993e-03  1.1926e-03  0:01:14 1910
  2510  9.2597e-03  3.0276e-03  1.6101e-03  9.1688e-03  1.6082e-03  1.1808e-03  0:00:59 1909
  2511  9.2025e-03  3.0194e-03  1.5911e-03  9.1150e-03  1.6172e-03  1.1700e-03  0:07:09 1908
  2512  9.1280e-03  3.0113e-03  1.5790e-03  9.0439e-03  1.6264e-03  1.1609e-03  0:05:43 1907
  2513  9.0409e-03  3.0026e-03  1.5593e-03  8.9605e-03  1.6354e-03  1.1499e-03  0:04:34 1906
  2514  8.9393e-03  2.9857e-03  1.5416e-03  8.8624e-03  1.6449e-03  1.1373e-03  0:03:39 1905
  2515  8.8291e-03  2.9713e-03  1.5293e-03  8.7556e-03  1.6536e-03  1.1248e-03  0:02:55 1904
  2516  8.7165e-03  2.9603e-03  1.5234e-03  8.6466e-03  1.6630e-03  1.1132e-03  0:02:20 1903
  2517  8.5982e-03  2.9489e-03  1.5226e-03  8.5314e-03  1.6727e-03  1.1015e-03  0:01:52 1902

  iter  continuity  x-velocity  y-velocity      energy           k       omega     time/iter
  2518  8.4706e-03  2.9379e-03  1.5225e-03  8.4066e-03  1.6829e-03  1.0900e-03  0:07:50 1901
  2519  8.3470e-03  2.9302e-03  1.5231e-03  8.2860e-03  1.6921e-03  1.0787e-03  0:06:16 1900
  2520  8.2270e-03  2.9256e-03  1.5270e-03  8.1692e-03  1.7011e-03  1.0676e-03  0:05:00 1899
  2521  8.1041e-03  2.9253e-03  1.5315e-03  8.0494e-03  1.7102e-03  1.0581e-03  0:04:00 1898
  2522  7.9823e-03  2.9190e-03  1.5376e-03  7.9307e-03  1.7191e-03  1.0494e-03  0:03:12 1897
  2523  7.8479e-03  2.9077e-03  1.5404e-03  7.7983e-03  1.7273e-03  1.0394e-03  0:02:34 1896
  2524  7.7149e-03  2.8961e-03  1.5459e-03  7.6666e-03  1.7346e-03  1.0288e-03  0:02:03 1895
  2525  7.5912e-03  2.8855e-03  1.5479e-03  7.5440e-03  1.7418e-03  1.0201e-03  0:01:38 1894
  2526  7.4787e-03  2.8721e-03  1.5513e-03  7.4330e-03  1.7489e-03  1.0116e-03  0:01:18 1893
  2527  7.3753e-03  2.8590e-03  1.5518e-03  7.3310e-03  1.7553e-03  1.0030e-03  0:01:03 1892
  2528  7.2832e-03  2.8407e-03  1.5513e-03  7.2402e-03  1.7619e-03  9.9481e-04  0:07:08 1891

  iter  continuity  x-velocity  y-velocity      energy           k       omega     time/iter
  2529  7.1953e-03  2.8247e-03  1.5544e-03  7.1528e-03  1.7685e-03  9.8852e-04  0:05:43 1890
  2530  7.1116e-03  2.8099e-03  1.5568e-03  7.0691e-03  1.7745e-03  9.8096e-04  0:04:34 1889
  2531  7.0376e-03  2.7929e-03  1.5564e-03  6.9951e-03  1.7798e-03  9.7307e-04  0:03:39 1888
  2532  6.9748e-03  2.7696e-03  1.5518e-03  6.9323e-03  1.7843e-03  9.6325e-04  0:02:55 1887
  2533  6.9237e-03  2.7465e-03  1.5504e-03  6.8809e-03  1.7889e-03  9.5388e-04  0:02:20 1886
  2534  6.8825e-03  2.7216e-03  1.5457e-03  6.8390e-03  1.7933e-03  9.4564e-04  0:01:52 1885
  2535  6.8553e-03  2.6945e-03  1.5423e-03  6.8108e-03  1.7970e-03  9.3801e-04  0:01:30 1884
  2536  6.8331e-03  2.6579e-03  1.5335e-03  6.7875e-03  1.8007e-03  9.3084e-04  0:01:12 1883
  2537  6.8236e-03  2.6245e-03  1.5242e-03  6.7767e-03  1.8044e-03  9.2330e-04  0:07:14 1882
  2538  6.8268e-03  2.5903e-03  1.5133e-03  6.7788e-03  1.8078e-03  9.1594e-04  0:05:47 1881
  2539  6.8449e-03  2.5549e-03  1.5043e-03  6.7957e-03  1.8107e-03  9.0793e-04  0:04:37 1880

  iter  continuity  x-velocity  y-velocity      energy           k       omega     time/iter
  2540  6.8670e-03  2.5186e-03  1.4920e-03  6.8165e-03  1.8127e-03  9.0153e-04  0:03:42 1879
  2541  6.8867e-03  2.4817e-03  1.4782e-03  6.8345e-03  1.8143e-03  8.9538e-04  0:02:57 1878
  2542  6.9096e-03  2.4435e-03  1.4663e-03  6.8556e-03  1.8161e-03  8.8918e-04  0:02:22 1877
  2543  6.9313e-03  2.4021e-03  1.4529e-03  6.8754e-03  1.8177e-03  8.8282e-04  0:01:53 1876
  2544  6.9555e-03  2.3612e-03  1.4394e-03  6.8977e-03  1.8192e-03  8.7768e-04  0:01:31 1875
  2545  6.9800e-03  2.3207e-03  1.4209e-03  6.9202e-03  1.8203e-03  8.7293e-04  0:01:12 1874
  2546  7.0069e-03  2.2796e-03  1.4013e-03  6.9451e-03  1.8219e-03  8.6718e-04  0:07:13 1873
  2547  7.0335e-03  2.2385e-03  1.3818e-03  6.9698e-03  1.8233e-03  8.6039e-04  0:05:46 1872
  2548  7.0539e-03  2.1985e-03  1.3597e-03  6.9882e-03  1.8242e-03  8.5311e-04  0:04:37 1871
  2549  7.0656e-03  2.1583e-03  1.3382e-03  6.9977e-03  1.8247e-03  8.4640e-04  0:03:41 1870
  2550  7.0685e-03  2.1170e-03  1.3179e-03  6.9986e-03  1.8253e-03  8.3932e-04  0:02:57 1869

  iter  continuity  x-velocity  y-velocity      energy           k       omega     time/iter
  2551  7.0630e-03  2.0752e-03  1.2991e-03  6.9912e-03  1.8265e-03  8.3173e-04  0:02:21 1868
  2552  7.0512e-03  2.0349e-03  1.2786e-03  6.9775e-03  1.8274e-03  8.2490e-04  0:01:53 1867
  2553  7.0345e-03  1.9968e-03  1.2579e-03  6.9593e-03  1.8277e-03  8.1764e-04  0:01:30 1866
  2554  7.0142e-03  1.9607e-03  1.2372e-03  6.9376e-03  1.8268e-03  8.1062e-04  0:01:12 1865
  2555  6.9888e-03  1.9257e-03  1.2183e-03  6.9109e-03  1.8252e-03  8.0344e-04  0:00:58 1864
  2556  6.9598e-03  1.8915e-03  1.1998e-03  6.8808e-03  1.8235e-03  7.9683e-04  0:06:59 1863
  2557  6.9315e-03  1.8592e-03  1.1832e-03  6.8516e-03  1.8208e-03  7.8959e-04  0:05:35 1862
  2558  6.8984e-03  1.8291e-03  1.1641e-03  6.8177e-03  1.8169e-03  7.8152e-04  0:04:28 1861
  2559  6.8698e-03  1.8015e-03  1.1440e-03  6.7888e-03  1.8113e-03  7.7261e-04  0:03:34 1860
  2560  6.8406e-03  1.7741e-03  1.1265e-03  6.7597e-03  1.8045e-03  7.6355e-04  0:02:51 1859
  2561  6.8153e-03  1.7487e-03  1.1102e-03  6.7347e-03  1.7966e-03  7.5398e-04  0:02:17 1858

  iter  continuity  x-velocity  y-velocity      energy           k       omega     time/iter
  2562  6.8032e-03  1.7252e-03  1.0950e-03  6.7234e-03  1.7871e-03  7.4409e-04  0:01:49 1857
  2563  6.7961e-03  1.7039e-03  1.0802e-03  6.7172e-03  1.7761e-03  7.3476e-04  0:01:27 1856
  2564  6.7859e-03  1.6847e-03  1.0658e-03  6.7083e-03  1.7635e-03  7.2510e-04  0:01:10 1855
  2565  6.7825e-03  1.6671e-03  1.0520e-03  6.7064e-03  1.7492e-03  7.1597e-04  0:00:56 1854
  2566  6.7851e-03  1.6516e-03  1.0388e-03  6.7106e-03  1.7338e-03  7.0692e-04  0:06:55 1853
  2567  6.7937e-03  1.6372e-03  1.0271e-03  6.7211e-03  1.7176e-03  6.9732e-04  0:05:32 1852
  2568  6.8080e-03  1.6243e-03  1.0165e-03  6.7374e-03  1.7005e-03  6.8877e-04  0:04:26 1851
  2569  6.8279e-03  1.6124e-03  1.0066e-03  6.7594e-03  1.6829e-03  6.8159e-04  0:03:32 1850
  2570  6.8504e-03  1.6028e-03  9.9709e-04  6.7840e-03  1.6657e-03  6.7459e-04  0:02:50 1849
  2571  6.8747e-03  1.5937e-03  9.8887e-04  6.8104e-03  1.6499e-03  6.6769e-04  0:02:16 1848
  2572  6.9003e-03  1.5874e-03  9.8248e-04  6.8381e-03  1.6349e-03  6.6095e-04  0:01:49 1847

  iter  continuity  x-velocity  y-velocity      energy           k       omega     time/iter
  2573  6.9254e-03  1.5825e-03  9.7780e-04  6.8651e-03  1.6198e-03  6.5385e-04  0:01:27 1846
  2574  6.9457e-03  1.5734e-03  9.7510e-04  6.8872e-03  1.6051e-03  6.4717e-04  0:01:09 1845
  2575  6.9571e-03  1.5665e-03  9.7418e-04  6.9003e-03  1.5907e-03  6.4022e-04  0:00:55 1844
  2576  6.9602e-03  1.5570e-03  9.7470e-04  6.9048e-03  1.5780e-03  6.3337e-04  0:06:53 1843
  2577  6.9574e-03  1.5467e-03  9.7660e-04  6.9033e-03  1.5664e-03  6.2700e-04  0:05:30 1842
  2578  6.9446e-03  1.5359e-03  9.8006e-04  6.8915e-03  1.5544e-03  6.2096e-04  0:04:24 1841
  2579  6.9211e-03  1.5254e-03  9.8535e-04  6.8688e-03  1.5426e-03  6.1493e-04  0:03:31 1840
  2580  6.8830e-03  1.5167e-03  9.9139e-04  6.8313e-03  1.5314e-03  6.0907e-04  0:02:49 1839
  2581  6.8288e-03  1.5077e-03  9.9835e-04  6.7775e-03  1.5215e-03  6.0313e-04  0:02:15 1838
  2582  6.7596e-03  1.4997e-03  1.0067e-03  6.7085e-03  1.5134e-03  5.9740e-04  0:01:48 1837
  2583  6.6760e-03  1.4911e-03  1.0163e-03  6.6249e-03  1.5058e-03  5.9226e-04  0:01:26 1836

  iter  continuity  x-velocity  y-velocity      energy           k       omega     time/iter
  2584  6.5762e-03  1.4830e-03  1.0265e-03  6.5249e-03  1.4991e-03  5.8688e-04  0:01:09 1835
  2585  6.4627e-03  1.4738e-03  1.0362e-03  6.4110e-03  1.4930e-03  5.8117e-04  0:07:02 1834
  2586  6.3382e-03  1.4648e-03  1.0459e-03  6.2860e-03  1.4880e-03  5.7619e-04  0:05:37 1833
  2587  6.2027e-03  1.4576e-03  1.0560e-03  6.1497e-03  1.4844e-03  5.7103e-04  0:04:30 1832
  2588  6.0582e-03  1.4502e-03  1.0660e-03  6.0043e-03  1.4811e-03  5.6543e-04  0:03:36 1831
  2589  5.9064e-03  1.4407e-03  1.0758e-03  5.8514e-03  1.4781e-03  5.6109e-04  0:02:52 1830
  2590  5.7494e-03  1.4300e-03  1.0848e-03  5.6931e-03  1.4756e-03  5.5613e-04  0:02:18 1829
  2591  5.5889e-03  1.4186e-03  1.0925e-03  5.5311e-03  1.4739e-03  5.5143e-04  0:01:50 1828
  2592  5.4272e-03  1.4071e-03  1.0997e-03  5.3677e-03  1.4732e-03  5.4716e-04  0:01:28 1827
  2593  5.2682e-03  1.3961e-03  1.1059e-03  5.2069e-03  1.4730e-03  5.4279e-04  0:01:10 1826
  2594  5.1161e-03  1.3850e-03  1.1110e-03  5.0528e-03  1.4732e-03  5.3793e-04  0:00:56 1825

  iter  continuity  x-velocity  y-velocity      energy           k       omega     time/iter
  2595  4.9754e-03  1.3730e-03  1.1148e-03  4.9099e-03  1.4740e-03  5.3363e-04  0:06:50 1824
  2596  4.8497e-03  1.3622e-03  1.1172e-03  4.7820e-03  1.4756e-03  5.2979e-04  0:05:28 1823
  2597  4.7446e-03  1.3518e-03  1.1184e-03  4.6746e-03  1.4777e-03  5.2616e-04  0:04:22 1822
  2598  4.6637e-03  1.3422e-03  1.1179e-03  4.5916e-03  1.4800e-03  5.2226e-04  0:03:30 1821
  2599  4.6092e-03  1.3330e-03  1.1163e-03  4.5350e-03  1.4823e-03  5.1821e-04  0:02:48 1820
  2600  4.5839e-03  1.3230e-03  1.1134e-03  4.5078e-03  1.4845e-03  5.1428e-04  0:02:14 1819
  2601  4.5876e-03  1.3115e-03  1.1079e-03  4.5101e-03  1.4865e-03  5.1006e-04  0:01:47 1818
  2602  4.6202e-03  1.2996e-03  1.1008e-03  4.5414e-03  1.4888e-03  5.0568e-04  0:01:26 1817
  2603  4.6808e-03  1.2859e-03  1.0938e-03  4.6012e-03  1.4907e-03  5.0220e-04  0:01:08 1816
  2604  4.7663e-03  1.2705e-03  1.0860e-03  4.6862e-03  1.4926e-03  4.9811e-04  0:00:55 1815
  2605  4.8726e-03  1.2537e-03  1.0768e-03  4.7923e-03  1.4942e-03  4.9391e-04  0:00:44 1814

  iter  continuity  x-velocity  y-velocity      energy           k       omega     time/iter
  2606  4.9962e-03  1.2358e-03  1.0661e-03  4.9158e-03  1.4958e-03  4.9006e-04  0:06:38 1813
  2607  5.1316e-03  1.2187e-03  1.0536e-03  5.0515e-03  1.4971e-03  4.8666e-04  0:05:18 1812
  2608  5.2746e-03  1.2029e-03  1.0403e-03  5.1949e-03  1.4980e-03  4.8314e-04  0:04:14 1811
  2609  5.4197e-03  1.1865e-03  1.0260e-03  5.3405e-03  1.4985e-03  4.7944e-04  0:03:23 1810
  2610  5.5626e-03  1.1710e-03  1.0109e-03  5.4841e-03  1.4985e-03  4.7544e-04  0:02:42 1809
  2611  5.7006e-03  1.1569e-03  9.9540e-04  5.6228e-03  1.4982e-03  4.7213e-04  0:02:10 1808
  2612  5.8290e-03  1.1446e-03  9.7901e-04  5.7520e-03  1.4975e-03  4.6842e-04  0:01:44 1807
  2613  5.9445e-03  1.1331e-03  9.6183e-04  5.8683e-03  1.4962e-03  4.6481e-04  0:01:23 1806
  2614  6.0435e-03  1.1240e-03  9.4389e-04  5.9682e-03  1.4939e-03  4.6136e-04  0:01:06 1805
  2615  6.1245e-03  1.1137e-03  9.2622e-04  6.0502e-03  1.4912e-03  4.5796e-04  0:06:54 1804
  2616  6.1869e-03  1.1038e-03  9.0857e-04  6.1136e-03  1.4877e-03  4.5430e-04  0:05:31 1803

  iter  continuity  x-velocity  y-velocity      energy           k       omega     time/iter
  2617  6.2264e-03  1.0926e-03  8.9101e-04  6.1543e-03  1.4833e-03  4.5022e-04  0:04:25 1802
  2618  6.2477e-03  1.0831e-03  8.7432e-04  6.1766e-03  1.4782e-03  4.4623e-04  0:03:32 1801
  2619  6.2500e-03  1.0739e-03  8.5849e-04  6.1801e-03  1.4722e-03  4.4220e-04  0:02:49 1800
  2620  6.2322e-03  1.0599e-03  8.4348e-04  6.1635e-03  1.4651e-03  4.3828e-04  0:02:15 1799
  2621  6.1869e-03  1.0429e-03  8.2951e-04  6.1195e-03  1.4584e-03  4.3437e-04  0:01:48 1798
  2622  6.1166e-03  1.0318e-03  8.1704e-04  6.0505e-03  1.4511e-03  4.3085e-04  0:01:26 1797
  2623  6.0300e-03  1.0245e-03  8.0530e-04  5.9651e-03  1.4433e-03  4.2730e-04  0:01:09 1796
  2624  5.9301e-03  1.0140e-03  7.9509e-04  5.8666e-03  1.4351e-03  4.2377e-04  0:00:55 1795
  2625  5.8185e-03  1.0053e-03  7.8612e-04  5.7563e-03  1.4268e-03  4.1985e-04  0:06:43 1794
  2626  5.6968e-03  9.9758e-04  7.7826e-04  5.6359e-03  1.4180e-03  4.1599e-04  0:05:22 1793
  2627  5.5688e-03  9.9300e-04  7.7170e-04  5.5092e-03  1.4089e-03  4.1248e-04  0:04:18 1792

  iter  continuity  x-velocity  y-velocity      energy           k       omega     time/iter
  2628  5.4370e-03  9.9295e-04  7.6632e-04  5.3788e-03  1.3988e-03  4.0938e-04  0:03:26 1791
  2629  5.3040e-03  9.9146e-04  7.6154e-04  5.2472e-03  1.3885e-03  4.0630e-04  0:02:45 1790
  2630  5.1729e-03  9.8328e-04  7.5745e-04  5.1176e-03  1.3774e-03  4.0325e-04  0:02:12 1789
  2631  5.0475e-03  9.7516e-04  7.5381e-04  4.9937e-03  1.3660e-03  4.0004e-04  0:01:45 1788
  2632  4.9305e-03  9.6381e-04  7.5057e-04  4.8783e-03  1.3542e-03  3.9627e-04  0:01:24 1787
  2633  4.8262e-03  9.5560e-04  7.4764e-04  4.7756e-03  1.3420e-03  3.9417e-04  0:01:07 1786
  2634  4.7348e-03  9.5133e-04  7.4521e-04  4.6858e-03  1.3298e-03  3.9176e-04  0:00:54 1785
  2635  4.6561e-03  9.5172e-04  7.4295e-04  4.6086e-03  1.3174e-03  3.8909e-04  0:06:40 1784
  2636  4.5854e-03  9.5633e-04  7.4080e-04  4.5394e-03  1.3048e-03  3.8669e-04  0:05:20 1783
  2637  4.5286e-03  9.5522e-04  7.3873e-04  4.4841e-03  1.2921e-03  3.8473e-04  0:04:16 1782
  2638  4.4872e-03  9.4824e-04  7.3671e-04  4.4441e-03  1.2798e-03  3.8253e-04  0:03:24 1781

  iter  continuity  x-velocity  y-velocity      energy           k       omega     time/iter
  2639  4.4571e-03  9.3953e-04  7.3485e-04  4.4154e-03  1.2675e-03  3.8044e-04  0:02:43 1780
  2640  4.4345e-03  9.3298e-04  7.3279e-04  4.3939e-03  1.2554e-03  3.7816e-04  0:02:11 1779
  2641  4.4161e-03  9.2599e-04  7.3039e-04  4.3765e-03  1.2437e-03  3.7552e-04  0:01:44 1778
  2642  4.3991e-03  9.1890e-04  7.2785e-04  4.3602e-03  1.2325e-03  3.7371e-04  0:01:24 1777
  2643  4.3802e-03  9.1350e-04  7.2498e-04  4.3421e-03  1.2216e-03  3.7164e-04  0:01:07 1776
  2644  4.3580e-03  9.1066e-04  7.2179e-04  4.3203e-03  1.2110e-03  3.6974e-04  0:06:48 1775
  2645  4.3300e-03  9.0999e-04  7.1856e-04  4.2927e-03  1.2008e-03  3.6836e-04  0:05:27 1774
  2646  4.2954e-03  9.1211e-04  7.1571e-04  4.2584e-03  1.1908e-03  3.6737e-04  0:04:21 1773
  2647  4.2518e-03  9.1428e-04  7.1209e-04  4.2150e-03  1.1807e-03  3.6646e-04  0:03:29 1772
  2648  4.1967e-03  9.1243e-04  7.0796e-04  4.1599e-03  1.1708e-03  3.6574e-04  0:02:47 1771
  2649  4.1282e-03  9.0914e-04  7.0351e-04  4.0913e-03  1.1615e-03  3.6531e-04  0:02:13 1770

  iter  continuity  x-velocity  y-velocity      energy           k       omega     time/iter
  2650  4.0466e-03  9.0847e-04  6.9853e-04  4.0095e-03  1.1529e-03  3.6500e-04  0:01:47 1769
  2651  3.9525e-03  9.1268e-04  6.9307e-04  3.9152e-03  1.1448e-03  3.6495e-04  0:07:19 1768
  2652  3.8458e-03  9.1104e-04  6.8718e-04  3.8083e-03  1.1371e-03  3.6482e-04  0:05:51 1767
  2653  3.7285e-03  9.0990e-04  6.8075e-04  3.6908e-03  1.1297e-03  3.6464e-04  0:04:41 1766
  2654  3.6020e-03  9.0728e-04  6.7409e-04  3.5640e-03  1.1224e-03  3.6467e-04  0:03:44 1765
  2655  3.4674e-03  9.0532e-04  6.6687e-04  3.4292e-03  1.1151e-03  3.6466e-04  0:02:59 1764
  2656  3.3269e-03  9.0598e-04  6.5893e-04  3.2883e-03  1.1079e-03  3.6457e-04  0:02:23 1763
  2657  3.1832e-03  9.0670e-04  6.5094e-04  3.1442e-03  1.1008e-03  3.6446e-04  0:01:55 1762
  2658  3.0408e-03  9.0760e-04  6.4223e-04  3.0014e-03  1.0933e-03  3.6425e-04  0:01:32 1761
  2659  2.9035e-03  9.0994e-04  6.3359e-04  2.8634e-03  1.0860e-03  3.6405e-04  0:01:13 1760
  2660  2.7749e-03  9.1085e-04  6.2427e-04  2.7343e-03  1.0786e-03  3.6392e-04  0:00:59 1759

  iter  continuity  x-velocity  y-velocity      energy           k       omega     time/iter
  2661  2.6598e-03  9.0812e-04  6.1456e-04  2.6185e-03  1.0713e-03  3.6359e-04  0:06:38 1758
  2662  2.5626e-03  9.0160e-04  6.0484e-04  2.5208e-03  1.0641e-03  3.6249e-04  0:05:19 1757
  2663  2.4877e-03  8.9380e-04  5.9516e-04  2.4454e-03  1.0575e-03  3.6190e-04  0:04:15 1756
  2664  2.4392e-03  8.8873e-04  5.8549e-04  2.3964e-03  1.0516e-03  3.6181e-04  0:03:24 1755
  2665  2.4185e-03  8.8731e-04  5.7552e-04  2.3754e-03  1.0460e-03  3.6110e-04  0:02:43 1754
  2666  2.4260e-03  8.8656e-04  5.6523e-04  2.3829e-03  1.0408e-03  3.5935e-04  0:02:10 1753
  2667  2.4602e-03  8.8957e-04  5.5499e-04  2.4172e-03  1.0359e-03  3.5869e-04  0:01:44 1752
  2668  2.5171e-03  8.9368e-04  5.4467e-04  2.4744e-03  1.0313e-03  3.5815e-04  0:01:23 1751
  2669  2.5924e-03  8.9584e-04  5.3601e-04  2.5500e-03  1.0268e-03  3.5661e-04  0:01:07 1750
  2670  2.6808e-03  8.9327e-04  5.2691e-04  2.6388e-03  1.0225e-03  3.5545e-04  0:00:53 1749
  2671  2.7801e-03  8.8818e-04  5.1867e-04  2.7383e-03  1.0183e-03  3.5464e-04  0:06:32 1748

  iter  continuity  x-velocity  y-velocity      energy           k       omega     time/iter
  2672  2.8839e-03  8.7951e-04  5.1051e-04  2.8424e-03  1.0145e-03  3.5339e-04  0:05:14 1747
  2673  2.9899e-03  8.7206e-04  5.0186e-04  2.9487e-03  1.0108e-03  3.5209e-04  0:04:11 1746
  2674  3.0944e-03  8.6664e-04  4.9335e-04  3.0535e-03  1.0072e-03  3.5078e-04  0:03:20 1745
  2675  3.1939e-03  8.6375e-04  4.8560e-04  3.1533e-03  1.0037e-03  3.4958e-04  0:02:40 1744
  2676  3.2859e-03  8.6168e-04  4.7829e-04  3.2456e-03  1.0001e-03  3.4849e-04  0:02:08 1743
  2677  3.3693e-03  8.5944e-04  4.7206e-04  3.3293e-03  9.9671e-04  3.4735e-04  0:01:42 1742
  2678  3.4430e-03  8.5555e-04  4.6630e-04  3.4032e-03  9.9378e-04  3.4612e-04  0:01:22 1741
  2679  3.5057e-03  8.4994e-04  4.6112e-04  3.4663e-03  9.9116e-04  3.4493e-04  0:01:05 1740
  2680  3.5574e-03  8.4764e-04  4.5644e-04  3.5183e-03  9.8879e-04  3.4397e-04  0:00:52 1739
  2681  3.5981e-03  8.4670e-04  4.5239e-04  3.5593e-03  9.8683e-04  3.4324e-04  0:06:29 1738
  2682  3.6274e-03  8.4176e-04  4.4903e-04  3.5889e-03  9.8552e-04  3.4263e-04  0:05:11 1737

  iter  continuity  x-velocity  y-velocity      energy           k       omega     time/iter
  2683  3.6456e-03  8.3420e-04  4.4578e-04  3.6075e-03  9.8461e-04  3.4210e-04  0:04:09 1736
  2684  3.6535e-03  8.2849e-04  4.4262e-04  3.6159e-03  9.8438e-04  3.4151e-04  0:03:19 1735
  2685  3.6521e-03  8.2486e-04  4.3980e-04  3.6148e-03  9.8475e-04  3.4073e-04  0:02:39 1734
  2686  3.6420e-03  8.2220e-04  4.3724e-04  3.6051e-03  9.8527e-04  3.4044e-04  0:02:07 1733
  2687  3.6243e-03  8.1937e-04  4.3489e-04  3.5878e-03  9.8609e-04  3.4005e-04  0:01:42 1732
  2688  3.6001e-03  8.1577e-04  4.3256e-04  3.5640e-03  9.8720e-04  3.3943e-04  0:01:21 1731
  2689  3.5705e-03  8.1124e-04  4.3024e-04  3.5348e-03  9.8852e-04  3.3884e-04  0:06:51 1730
  2690  3.5367e-03  8.0650e-04  4.2790e-04  3.5013e-03  9.8968e-04  3.3823e-04  0:05:29 1729
  2691  3.4999e-03  8.0293e-04  4.2552e-04  3.4648e-03  9.9100e-04  3.3760e-04  0:04:23 1728
  2692  3.4613e-03  8.0047e-04  4.2324e-04  3.4265e-03  9.9202e-04  3.3705e-04  0:03:30 1727
  2693  3.4221e-03  7.9936e-04  4.2079e-04  3.3876e-03  9.9284e-04  3.3640e-04  0:02:48 1726

  iter  continuity  x-velocity  y-velocity      energy           k       omega     time/iter
  2694  3.3836e-03  7.9949e-04  4.1826e-04  3.3493e-03  9.9327e-04  3.3553e-04  0:02:14 1725
  2695  3.3465e-03  8.0013e-04  4.1587e-04  3.3124e-03  9.9354e-04  3.3420e-04  0:01:47 1724
  2696  3.3116e-03  8.0180e-04  4.1309e-04  3.2776e-03  9.9343e-04  3.3272e-04  0:01:26 1723
  2697  3.2800e-03  8.0922e-04  4.1009e-04  3.2460e-03  9.9278e-04  3.3154e-04  0:01:09 1722
  2698  3.2516e-03  8.1038e-04  4.0694e-04  3.2177e-03  9.9183e-04  3.3031e-04  0:06:39 1721
  2699  3.2271e-03  8.0728e-04  4.0391e-04  3.1933e-03  9.9092e-04  3.2898e-04  0:05:19 1720
  2700  3.2072e-03  8.0722e-04  4.0070e-04  3.1734e-03  9.9010e-04  3.2759e-04  0:04:15 1719
  2701  3.1918e-03  8.0695e-04  3.9736e-04  3.1580e-03  9.8895e-04  3.2612e-04  0:03:24 1718
  2702  3.1806e-03  8.0329e-04  3.9356e-04  3.1469e-03  9.8779e-04  3.2472e-04  0:02:43 1717
  2703  3.1738e-03  7.9468e-04  3.8973e-04  3.1401e-03  9.8655e-04  3.2328e-04  0:02:10 1716
  2704  3.1711e-03  7.8263e-04  3.8587e-04  3.1373e-03  9.8532e-04  3.2165e-04  0:01:44 1715

  iter  continuity  x-velocity  y-velocity      energy           k       omega     time/iter
  2705  3.1724e-03  7.7085e-04  3.8222e-04  3.1385e-03  9.8416e-04  3.1949e-04  0:01:23 1714
  2706  3.1770e-03  7.5968e-04  3.7881e-04  3.1430e-03  9.8300e-04  3.1772e-04  0:01:07 1713
  2707  3.1843e-03  7.5270e-04  3.7529e-04  3.1503e-03  9.8176e-04  3.1623e-04  0:06:36 1712
  2708  3.1938e-03  7.4700e-04  3.7167e-04  3.1596e-03  9.8039e-04  3.1450e-04  0:05:16 1711
  2709  3.2047e-03  7.3948e-04  3.6799e-04  3.1702e-03  9.7893e-04  3.1271e-04  0:04:13 1710
  2710  3.2163e-03  7.3391e-04  3.6441e-04  3.1816e-03  9.7738e-04  3.1081e-04  0:03:22 1709
  2711  3.2277e-03  7.3224e-04  3.6072e-04  3.1928e-03  9.7569e-04  3.0882e-04  0:02:42 1708
  2712  3.2381e-03  7.3462e-04  3.5696e-04  3.2031e-03  9.7379e-04  3.0670e-04  0:02:09 1707
  2713  3.2470e-03  7.4177e-04  3.5352e-04  3.2118e-03  9.7183e-04  3.0452e-04  0:07:25 1706
  2714  3.2531e-03  7.5005e-04  3.4967e-04  3.2177e-03  9.6963e-04  3.0216e-04  0:05:55 1705
  2715  3.2552e-03  7.4788e-04  3.4572e-04  3.2197e-03  9.6739e-04  2.9987e-04  0:04:44 1704

  iter  continuity  x-velocity  y-velocity      energy           k       omega     time/iter
  2716  3.2531e-03  7.4196e-04  3.4213e-04  3.2175e-03  9.6495e-04  2.9726e-04  0:03:47 1703
  2717  3.2465e-03  7.3792e-04  3.3886e-04  3.2109e-03  9.6219e-04  2.9454e-04  0:03:02 1702
  2718  3.2351e-03  7.3580e-04  3.3576e-04  3.1993e-03  9.5906e-04  2.9199e-04  0:02:25 1701
  2719  3.2185e-03  7.3517e-04  3.3287e-04  3.1825e-03  9.5562e-04  2.8965e-04  0:01:56 1700
  2720  3.1960e-03  7.3091e-04  3.3044e-04  3.1599e-03  9.5176e-04  2.8719e-04  0:01:33 1699
  2721  3.1677e-03  7.3019e-04  3.2850e-04  3.1314e-03  9.4761e-04  2.8450e-04  0:01:14 1698
  2722  3.1333e-03  7.3032e-04  3.2697e-04  3.0967e-03  9.4317e-04  2.8179e-04  0:00:59 1697
  2723  3.0925e-03  7.3486e-04  3.2547e-04  3.0558e-03  9.3841e-04  2.7930e-04  0:06:27 1696
  2724  3.0463e-03  7.4142e-04  3.2409e-04  3.0095e-03  9.3350e-04  2.7677e-04  0:05:09 1695
  2725  2.9952e-03  7.4530e-04  3.2309e-04  2.9582e-03  9.2823e-04  2.7429e-04  0:04:07 1694
  2726  2.9390e-03  7.4847e-04  3.2256e-04  2.9018e-03  9.2284e-04  2.7196e-04  0:03:18 1693

  iter  continuity  x-velocity  y-velocity      energy           k       omega     time/iter
  2727  2.8788e-03  7.5249e-04  3.2225e-04  2.8414e-03  9.1746e-04  2.6979e-04  0:02:38 1692
  2728  2.8155e-03  7.4814e-04  3.2245e-04  2.7778e-03  9.1202e-04  2.6780e-04  0:02:06 1691
  2729  2.7494e-03  7.3913e-04  3.2302e-04  2.7115e-03  9.0666e-04  2.6594e-04  0:01:41 1690
  2730  2.6821e-03  7.3727e-04  3.2328e-04  2.6438e-03  9.0182e-04  2.6428e-04  0:01:21 1689
  2731  2.6145e-03  7.3586e-04  3.2347e-04  2.5759e-03  8.9722e-04  2.6267e-04  0:01:05 1688
  2732  2.5480e-03  7.4322e-04  3.2424e-04  2.5089e-03  8.9281e-04  2.6119e-04  0:00:52 1687
  2733  2.4833e-03  7.5219e-04  3.2537e-04  2.4437e-03  8.8857e-04  2.5995e-04  0:06:18 1686
  2734  2.4217e-03  7.6170e-04  3.2637e-04  2.3817e-03  8.8426e-04  2.5876e-04  0:05:03 1685
  2735  2.3633e-03  7.6517e-04  3.2694e-04  2.3230e-03  8.8024e-04  2.5771e-04  0:04:02 1684
  2736  2.3100e-03  7.6672e-04  3.2719e-04  2.2692e-03  8.7644e-04  2.5706e-04  0:03:13 1683
  2737  2.2610e-03  7.6038e-04  3.2694e-04  2.2198e-03  8.7247e-04  2.5630e-04  0:02:35 1682

  iter  continuity  x-velocity  y-velocity      energy           k       omega     time/iter
  2738  2.2179e-03  7.5565e-04  3.2562e-04  2.1765e-03  8.6820e-04  2.5580e-04  0:02:04 1681
  2739  2.1827e-03  7.6400e-04  3.2410e-04  2.1412e-03  8.6363e-04  2.5573e-04  0:01:39 1680
  2740  2.1541e-03  7.6936e-04  3.2296e-04  2.1124e-03  8.5867e-04  2.5554e-04  0:01:19 1679
  2741  2.1324e-03  7.7690e-04  3.2271e-04  2.0907e-03  8.5353e-04  2.5580e-04  0:01:03 1678
  2742  2.1173e-03  7.7703e-04  3.2291e-04  2.0755e-03  8.4806e-04  2.5590e-04  0:06:26 1677
  2743  2.1079e-03  7.7965e-04  3.2278e-04  2.0661e-03  8.4222e-04  2.5622e-04  0:05:09 1676
  2744  2.1039e-03  7.8563e-04  3.2153e-04  2.0620e-03  8.3600e-04  2.5689e-04  0:04:07 1675
  2745  2.1045e-03  7.9169e-04  3.1977e-04  2.0627e-03  8.2948e-04  2.5766e-04  0:03:17 1674
  2746  2.1093e-03  8.0227e-04  3.1819e-04  2.0675e-03  8.2257e-04  2.5853e-04  0:02:38 1673
  2747  2.1176e-03  8.2305e-04  3.1733e-04  2.0757e-03  8.1531e-04  2.5956e-04  0:02:06 1672
  2748  2.1253e-03  8.3238e-04  3.1694e-04  2.0835e-03  8.0769e-04  2.6058e-04  0:01:41 1671

  iter  continuity  x-velocity  y-velocity      energy           k       omega     time/iter
  2749  2.1330e-03  8.3212e-04  3.1793e-04  2.0913e-03  7.9984e-04  2.6171e-04  0:01:21 1670
  2750  2.1437e-03  8.4286e-04  3.1929e-04  2.1019e-03  7.9170e-04  2.6319e-04  0:01:04 1669
  2751  2.1523e-03  8.3974e-04  3.1899e-04  2.1102e-03  7.8339e-04  2.6447e-04  0:00:52 1668
  2752  2.1606e-03  8.4034e-04  3.1703e-04  2.1181e-03  7.7488e-04  2.6585e-04  0:06:15 1667
  2753  2.1675e-03  8.4312e-04  3.1522e-04  2.1247e-03  7.6631e-04  2.6745e-04  0:04:59 1666
  2754  2.1728e-03  8.4628e-04  3.1401e-04  2.1295e-03  7.5752e-04  2.6898e-04  0:03:59 1665
  2755  2.1756e-03  8.4377e-04  3.1365e-04  2.1317e-03  7.4868e-04  2.7045e-04  0:03:11 1664
  2756  2.1784e-03  8.5854e-04  3.1412e-04  2.1340e-03  7.3985e-04  2.7190e-04  0:02:33 1663
  2757  2.1815e-03  8.8424e-04  3.1533e-04  2.1364e-03  7.3100e-04  2.7343e-04  0:02:02 1662
  2758  2.1817e-03  8.9937e-04  3.1557e-04  2.1359e-03  7.2217e-04  2.7512e-04  0:01:38 1661
  2759  2.1785e-03  8.7956e-04  3.1586e-04  2.1320e-03  7.1345e-04  2.7683e-04  0:01:18 1660

  iter  continuity  x-velocity  y-velocity      energy           k       omega     time/iter
  2760  2.1775e-03  8.7457e-04  3.1841e-04  2.1300e-03  7.0477e-04  2.7855e-04  0:01:03 1659
  2761  2.1794e-03  8.8777e-04  3.2192e-04  2.1310e-03  6.9627e-04  2.8044e-04  0:00:50 1658
  2762  2.1797e-03  8.8357e-04  3.2080e-04  2.1305e-03  6.8783e-04  2.8210e-04  0:06:11 1657
  2763  2.1831e-03  8.7840e-04  3.2022e-04  2.1327e-03  6.7948e-04  2.8365e-04  0:04:57 1656
  2764  2.1898e-03  8.9336e-04  3.2073e-04  2.1384e-03  6.7114e-04  2.8490e-04  0:03:57 1655
  2765  2.1931e-03  8.6787e-04  3.1942e-04  2.1410e-03  6.6298e-04  2.8617e-04  0:03:10 1654
  2766  2.2007e-03  8.3548e-04  3.1510e-04  2.1484e-03  6.5517e-04  2.8739e-04  0:02:32 1653
  2767  2.2138e-03  8.2457e-04  3.1232e-04  2.1611e-03  6.4772e-04  2.8857e-04  0:02:01 1652
  2768  2.2310e-03  8.1930e-04  3.1045e-04  2.1778e-03  6.4072e-04  2.8980e-04  0:01:37 1651
  2769  2.2536e-03  8.2417e-04  3.0988e-04  2.1995e-03  6.3431e-04  2.9067e-04  0:01:18 1650
  2770  2.2800e-03  8.3266e-04  3.0923e-04  2.2251e-03  6.2872e-04  2.9138e-04  0:01:02 1649

  iter  continuity  x-velocity  y-velocity      energy           k       omega     time/iter
  2771  2.3090e-03  8.3412e-04  3.0797e-04  2.2534e-03  6.2384e-04  2.9197e-04  0:00:50 1648
  2772  2.3397e-03  8.2708e-04  3.0659e-04  2.2835e-03  6.1948e-04  2.9230e-04  0:06:09 1647
  2773  2.3735e-03  8.2355e-04  3.0508e-04  2.3168e-03  6.1561e-04  2.9241e-04  0:04:55 1646
  2774  2.4101e-03  8.2524e-04  3.0487e-04  2.3529e-03  6.1215e-04  2.9235e-04  0:03:56 1645
  2775  2.4487e-03  8.2965e-04  3.0338e-04  2.3910e-03  6.0919e-04  2.9220e-04  0:03:09 1644
  2776  2.4883e-03  8.3015e-04  3.0130e-04  2.4302e-03  6.0652e-04  2.9190e-04  0:02:31 1643
  2777  2.5292e-03  8.3606e-04  3.0001e-04  2.4705e-03  6.0429e-04  2.9154e-04  0:02:01 1642
  2778  2.5712e-03  8.4654e-04  2.9748e-04  2.5119e-03  6.0231e-04  2.9121e-04  0:01:36 1641
  2779  2.6140e-03  8.6368e-04  2.9497e-04  2.5541e-03  6.0068e-04  2.9098e-04  0:06:45 1640
  2780  2.6536e-03  8.6737e-04  2.9438e-04  2.5933e-03  5.9932e-04  2.9070e-04  0:05:24 1639
  2781  2.6923e-03  8.6097e-04  2.9631e-04  2.6315e-03  5.9822e-04  2.9038e-04  0:04:19 1638

  iter  continuity  x-velocity  y-velocity      energy           k       omega     time/iter
  2782  2.7301e-03  8.6260e-04  2.9782e-04  2.6688e-03  5.9733e-04  2.9007e-04  0:03:27 1637
  2783  2.7657e-03  8.6082e-04  2.9768e-04  2.7040e-03  5.9648e-04  2.8981e-04  0:02:46 1636
  2784  2.7997e-03  8.6340e-04  2.9310e-04  2.7375e-03  5.9578e-04  2.8957e-04  0:02:12 1635
  2785  2.8326e-03  8.8321e-04  2.9119e-04  2.7699e-03  5.9511e-04  2.8912e-04  0:01:46 1634
  2786  2.8629e-03  9.0920e-04  2.9108e-04  2.7998e-03  5.9461e-04  2.8855e-04  0:01:25 1633
  2787  2.8873e-03  9.0588e-04  2.9308e-04  2.8240e-03  5.9420e-04  2.8795e-04  0:06:34 1632
  2788  2.9101e-03  9.0626e-04  2.9457e-04  2.8464e-03  5.9418e-04  2.8723e-04  0:05:15 1631
  2789  2.9306e-03  8.9964e-04  2.9434e-04  2.8665e-03  5.9437e-04  2.8610e-04  0:04:12 1630
  2790  2.9487e-03  8.9256e-04  2.9455e-04  2.8839e-03  5.9472e-04  2.8477e-04  0:03:21 1629
  2791  2.9665e-03  9.1753e-04  2.9670e-04  2.9008e-03  5.9524e-04  2.8355e-04  0:02:41 1628
  2792  2.9785e-03  9.1624e-04  2.9682e-04  2.9123e-03  5.9584e-04  2.8252e-04  0:02:09 1627

  iter  continuity  x-velocity  y-velocity      energy           k       omega     time/iter
  2793  2.9887e-03  9.0638e-04  2.9635e-04  2.9219e-03  5.9644e-04  2.8129e-04  0:01:43 1626
  2794  2.9997e-03  9.2100e-04  2.9803e-04  2.9317e-03  5.9701e-04  2.7981e-04  0:01:22 1625
  2795  3.0075e-03  9.4224e-04  2.9780e-04  2.9384e-03  5.9749e-04  2.7815e-04  0:01:06 1624
  2796  3.0073e-03  9.0508e-04  2.9846e-04  2.9378e-03  5.9789e-04  2.7679e-04  0:06:17 1623
  2797  3.0043e-03  8.3885e-04  2.9724e-04  2.9348e-03  5.9809e-04  2.7546e-04  0:05:02 1622
  2798  3.0021e-03  8.1502e-04  2.9570e-04  2.9327e-03  5.9819e-04  2.7419e-04  0:04:01 1621
  2799  2.9997e-03  8.0208e-04  2.9709e-04  2.9303e-03  5.9814e-04  2.7296e-04  0:03:13 1620
  2800  2.9977e-03  7.9621e-04  2.9744e-04  2.9279e-03  5.9802e-04  2.7170e-04  0:02:34 1619
  2801  2.9950e-03  7.9110e-04  2.9854e-04  2.9246e-03  5.9772e-04  2.7048e-04  0:02:03 1618
  2802  2.9917e-03  7.8628e-04  2.9786e-04  2.9208e-03  5.9745e-04  2.6939e-04  0:01:39 1617
  2803  2.9889e-03  7.8525e-04  3.0037e-04  2.9172e-03  5.9705e-04  2.6838e-04  0:01:19 1616

  iter  continuity  x-velocity  y-velocity      energy           k       omega     time/iter
  2804  2.9864e-03  7.9322e-04  3.0393e-04  2.9141e-03  5.9654e-04  2.6728e-04  0:01:03 1615
  2805  2.9818e-03  7.9011e-04  3.0687e-04  2.9091e-03  5.9581e-04  2.6615e-04  0:00:50 1614
  2806  2.9775e-03  7.8202e-04  3.0942e-04  2.9046e-03  5.9507e-04  2.6530e-04  0:06:03 1613
  2807  2.9739e-03  7.8573e-04  3.1206e-04  2.9007e-03  5.9433e-04  2.6457e-04  0:04:50 1612
  2808  2.9696e-03  7.8184e-04  3.1434e-04  2.8962e-03  5.9361e-04  2.6394e-04  0:03:52 1611
  2809  2.9661e-03  7.7690e-04  3.1574e-04  2.8924e-03  5.9295e-04  2.6337e-04  0:03:05 1610
  2810  2.9647e-03  7.9322e-04  3.1614e-04  2.8908e-03  5.9237e-04  2.6291e-04  0:02:28 1609
  2811  2.9634e-03  8.1633e-04  3.1708e-04  2.8895e-03  5.9195e-04  2.6241e-04  0:01:59 1608
  2812  2.9610e-03  8.1302e-04  3.1926e-04  2.8874e-03  5.9159e-04  2.6190e-04  0:01:35 1607
  2813  2.9593e-03  8.0135e-04  3.2413e-04  2.8858e-03  5.9136e-04  2.6141e-04  0:01:16 1606
  2814  2.9583e-03  8.0179e-04  3.2881e-04  2.8849e-03  5.9116e-04  2.6093e-04  0:01:01 1605

  iter  continuity  x-velocity  y-velocity      energy           k       omega     time/iter
  2815  2.9584e-03  8.1093e-04  3.3060e-04  2.8851e-03  5.9096e-04  2.6048e-04  0:06:09 1604
  2816  2.9603e-03  8.3523e-04  3.2998e-04  2.8873e-03  5.9078e-04  2.5987e-04  0:04:55 1603
  2817  2.9602e-03  8.3917e-04  3.3279e-04  2.8874e-03  5.9053e-04  2.5966e-04  0:03:56 1602
  2818  2.9621e-03  8.4654e-04  3.3658e-04  2.8895e-03  5.9017e-04  2.5963e-04  0:03:09 1601
  2819  2.9638e-03  8.3866e-04  3.3860e-04  2.8914e-03  5.8973e-04  2.5957e-04  0:02:31 1600
  2820  2.9670e-03  8.4551e-04  3.4056e-04  2.8946e-03  5.8917e-04  2.5949e-04  0:02:01 1599
  2821  2.9686e-03  8.5349e-04  3.4319e-04  2.8963e-03  5.8857e-04  2.5939e-04  0:01:36 1598
  2822  2.9701e-03  8.3648e-04  3.4482e-04  2.8981e-03  5.8794e-04  2.5917e-04  0:01:17 1597
  2823  2.9734e-03  8.4089e-04  3.4326e-04  2.9013e-03  5.8732e-04  2.5885e-04  0:01:02 1596
  2824  2.9760e-03  8.5136e-04  3.4216e-04  2.9036e-03  5.8665e-04  2.5846e-04  0:00:49 1595
  2825  2.9768e-03  8.3974e-04  3.4151e-04  2.9046e-03  5.8593e-04  2.5793e-04  0:05:58 1594

  iter  continuity  x-velocity  y-velocity      energy           k       omega     time/iter
  2826  2.9732e-03  7.9336e-04  3.4163e-04  2.9017e-03  5.8521e-04  2.5732e-04  0:04:46 1593
  2827  2.9717e-03  7.6829e-04  3.3953e-04  2.9006e-03  5.8447e-04  2.5699e-04  0:03:49 1592
  2828  2.9699e-03  7.6147e-04  3.3963e-04  2.8995e-03  5.8370e-04  2.5679e-04  0:03:03 1591
  2829  2.9692e-03  7.6117e-04  3.3960e-04  2.8992e-03  5.8291e-04  2.5667e-04  0:02:26 1590
  2830  2.9691e-03  7.7056e-04  3.3765e-04  2.8992e-03  5.8205e-04  2.5669e-04  0:01:57 1589
  2831  2.9684e-03  7.7602e-04  3.3590e-04  2.8985e-03  5.8114e-04  2.5673e-04  0:01:34 1588
  2832  2.9679e-03  7.8349e-04  3.3472e-04  2.8979e-03  5.8011e-04  2.5679e-04  0:01:15 1587
  2833  2.9678e-03  7.9419e-04  3.3525e-04  2.8976e-03  5.7901e-04  2.5690e-04  0:01:00 1586
  2834  2.9669e-03  8.0211e-04  3.3711e-04  2.8966e-03  5.7791e-04  2.5701e-04  0:06:05 1585
  2835  2.9636e-03  7.9573e-04  3.3773e-04  2.8935e-03  5.7671e-04  2.5720e-04  0:04:52 1584
  2836  2.9620e-03  7.9918e-04  3.3680e-04  2.8922e-03  5.7541e-04  2.5734e-04  0:03:53 1583

  iter  continuity  x-velocity  y-velocity      energy           k       omega     time/iter
  2837  2.9598e-03  8.0393e-04  3.3687e-04  2.8901e-03  5.7409e-04  2.5750e-04  0:03:06 1582
  2838  2.9562e-03  8.0808e-04  3.3612e-04  2.8866e-03  5.7274e-04  2.5764e-04  0:02:29 1581
  2839  2.9523e-03  8.0935e-04  3.3271e-04  2.8828e-03  5.7144e-04  2.5766e-04  0:01:59 1580
  2840  2.9484e-03  8.2299e-04  3.2991e-04  2.8789e-03  5.7014e-04  2.5784e-04  0:01:35 1579
  2841  2.9445e-03  8.4246e-04  3.2572e-04  2.8751e-03  5.6886e-04  2.5814e-04  0:01:16 1578
  2842  2.9375e-03  8.4241e-04  3.2394e-04  2.8685e-03  5.6775e-04  2.5836e-04  0:01:01 1577
  2843  2.9309e-03  8.4865e-04  3.2522e-04  2.8620e-03  5.6680e-04  2.5854e-04  0:00:49 1576
  2844  2.9232e-03  8.6243e-04  3.2860e-04  2.8544e-03  5.6605e-04  2.5858e-04  0:05:54 1575
  2845  2.9144e-03  8.7184e-04  3.2984e-04  2.8456e-03  5.6540e-04  2.5851e-04  0:04:43 1574
  2846  2.9065e-03  8.9804e-04  3.2803e-04  2.8377e-03  5.6477e-04  2.5837e-04  0:03:46 1573
  2847  2.8936e-03  9.0799e-04  3.2765e-04  2.8253e-03  5.6422e-04  2.5812e-04  0:03:01 1572

  iter  continuity  x-velocity  y-velocity      energy           k       omega     time/iter
  2848  2.8774e-03  8.8861e-04  3.2717e-04  2.8097e-03  5.6375e-04  2.5778e-04  0:02:25 1571
  2849  2.8621e-03  8.8396e-04  3.2726e-04  2.7948e-03  5.6334e-04  2.5725e-04  0:01:56 1570
  2850  2.8453e-03  8.6706e-04  3.2467e-04  2.7781e-03  5.6298e-04  2.5641e-04  0:01:32 1569
  2851  2.8299e-03  8.6754e-04  3.2113e-04  2.7623e-03  5.6268e-04  2.5572e-04  0:01:14 1568
  2852  2.8100e-03  8.6156e-04  3.1863e-04  2.7423e-03  5.6243e-04  2.5502e-04  0:00:59 1567
  2853  2.7903e-03  8.5157e-04  3.1827e-04  2.7224e-03  5.6224e-04  2.5419e-04  0:00:47 1566
  2854  2.7749e-03  8.8660e-04  3.1842e-04  2.7061e-03  5.6198e-04  2.5322e-04  0:05:51 1565
  2855  2.7509e-03  8.8930e-04  3.1768e-04  2.6819e-03  5.6180e-04  2.5228e-04  0:04:40 1564
  2856  2.7190e-03  8.3292e-04  3.1392e-04  2.6506e-03  5.6166e-04  2.5128e-04  0:03:44 1563
  2857  2.6885e-03  7.8984e-04  3.1022e-04  2.6208e-03  5.6149e-04  2.5032e-04  0:02:59 1562
  2858  2.6605e-03  7.7955e-04  3.0745e-04  2.5931e-03  5.6123e-04  2.4937e-04  0:02:23 1561

  iter  continuity  x-velocity  y-velocity      energy           k       omega     time/iter
  2859  2.6329e-03  7.8099e-04  3.0376e-04  2.5655e-03  5.6088e-04  2.4837e-04  0:01:55 1560
  2860  2.6054e-03  7.7920e-04  2.9885e-04  2.5378e-03  5.6042e-04  2.4729e-04  0:01:32 1559
  2861  2.5784e-03  7.8014e-04  2.9555e-04  2.5105e-03  5.5979e-04  2.4619e-04  0:01:13 1558
  2862  2.5526e-03  7.8405e-04  2.9670e-04  2.4842e-03  5.5900e-04  2.4485e-04  0:00:59 1557
  2863  2.5270e-03  7.9125e-04  2.9845e-04  2.4583e-03  5.5801e-04  2.4367e-04  0:05:58 1556
  2864  2.4995e-03  7.9039e-04  2.9521e-04  2.4310e-03  5.5693e-04  2.4252e-04  0:04:46 1555
  2865  2.4730e-03  7.9662e-04  2.9031e-04  2.4044e-03  5.5571e-04  2.4140e-04  0:03:49 1554
  2866  2.4453e-03  7.8471e-04  2.8815e-04  2.3765e-03  5.5430e-04  2.4027e-04  0:03:03 1553
  2867  2.4181e-03  7.7641e-04  2.8333e-04  2.3492e-03  5.5271e-04  2.3916e-04  0:02:26 1552
  2868  2.3949e-03  7.8176e-04  2.8177e-04  2.3257e-03  5.5096e-04  2.3817e-04  0:01:57 1551
  2869  2.3748e-03  8.0580e-04  2.7923e-04  2.3051e-03  5.4902e-04  2.3704e-04  0:01:33 1550

  iter  continuity  x-velocity  y-velocity      energy           k       omega     time/iter
  2870  2.3494e-03  8.0585e-04  2.7874e-04  2.2800e-03  5.4689e-04  2.3578e-04  0:01:15 1549
  2871  2.3277e-03  8.0437e-04  2.8102e-04  2.2583e-03  5.4453e-04  2.3427e-04  0:01:00 1548
  2872  2.3058e-03  8.0198e-04  2.8377e-04  2.2363e-03  5.4197e-04  2.3254e-04  0:05:57 1547
  2873  2.2863e-03  8.0803e-04  2.8431e-04  2.2166e-03  5.3919e-04  2.3116e-04  0:04:46 1546
  2874  2.2683e-03  8.1725e-04  2.8189e-04  2.1985e-03  5.3627e-04  2.3013e-04  0:03:48 1545
  2875  2.2508e-03  8.2786e-04  2.7958e-04  2.1813e-03  5.3326e-04  2.2877e-04  0:03:03 1544
  2876  2.2309e-03  8.0939e-04  2.8045e-04  2.1620e-03  5.3029e-04  2.2732e-04  0:02:26 1543
  2877  2.2139e-03  7.9557e-04  2.8084e-04  2.1450e-03  5.2727e-04  2.2609e-04  0:01:57 1542
  2878  2.2007e-03  8.0295e-04  2.8071e-04  2.1316e-03  5.2425e-04  2.2492e-04  0:01:33 1541
  2879  2.1900e-03  8.4319e-04  2.8213e-04  2.1209e-03  5.2125e-04  2.2374e-04  0:01:15 1540
  2880  2.1737e-03  8.4892e-04  2.8254e-04  2.1046e-03  5.1823e-04  2.2258e-04  0:01:00 1539

  iter  continuity  x-velocity  y-velocity      energy           k       omega     time/iter
  2881  2.1620e-03  8.3942e-04  2.8876e-04  2.0932e-03  5.1518e-04  2.2136e-04  0:00:48 1538
  2882  2.1554e-03  8.5449e-04  2.9455e-04  2.0860e-03  5.1206e-04  2.2009e-04  0:05:46 1537
  2883  2.1486e-03  8.6128e-04  2.9784e-04  2.0784e-03  5.0910e-04  2.1885e-04  0:04:36 1536
  2884  2.1434e-03  9.0206e-04  2.9507e-04  2.0730e-03  5.0613e-04  2.1757e-04  0:03:41 1535
  2885  2.1226e-03  8.3564e-04  2.8818e-04  2.0534e-03  5.0317e-04  2.1633e-04  0:02:57 1534
  2886  2.1111e-03  8.2208e-04  2.8140e-04  2.0426e-03  5.0029e-04  2.1503e-04  0:02:21 1533
  2887  2.1021e-03  8.2095e-04  2.7851e-04  2.0341e-03  4.9756e-04  2.1369e-04  0:01:53 1532
  2888  2.0941e-03  8.1248e-04  2.8194e-04  2.0259e-03  4.9506e-04  2.1239e-04  0:01:30 1531
  2889  2.0837e-03  7.9430e-04  2.8322e-04  2.0157e-03  4.9272e-04  2.1120e-04  0:01:12 1530
  2890  2.0749e-03  7.9222e-04  2.8206e-04  2.0075e-03  4.9047e-04  2.0989e-04  0:00:58 1529
  2891  2.0660e-03  7.8561e-04  2.8028e-04  1.9989e-03  4.8825e-04  2.0885e-04  0:00:46 1528

  iter  continuity  x-velocity  y-velocity      energy           k       omega     time/iter
  2892  2.0559e-03  7.5956e-04  2.7348e-04  1.9892e-03  4.8600e-04  2.0792e-04  0:05:42 1527
  2893  2.0485e-03  7.4521e-04  2.6533e-04  1.9817e-03  4.8377e-04  2.0709e-04  0:04:34 1526
  2894  2.0451e-03  7.6386e-04  2.6738e-04  1.9781e-03  4.8162e-04  2.0634e-04  0:03:39 1525
  2895  2.0390e-03  7.6749e-04  2.7218e-04  1.9721e-03  4.7950e-04  2.0548e-04  0:02:55 1524
  2896  2.0363e-03  7.7733e-04  2.7463e-04  1.9699e-03  4.7742e-04  2.0410e-04  0:02:20 1523
  2897  2.0335e-03  7.8416e-04  2.7751e-04  1.9670e-03  4.7541e-04  2.0307e-04  0:01:52 1522
  2898  2.0301e-03  7.8785e-04  2.7361e-04  1.9637e-03  4.7349e-04  2.0256e-04  0:01:29 1521
  2899  2.0291e-03  8.1100e-04  2.7068e-04  1.9629e-03  4.7169e-04  2.0174e-04  0:01:11 1520
  2900  2.0260e-03  8.2592e-04  2.7101e-04  1.9606e-03  4.7012e-04  2.0116e-04  0:00:57 1519
  2901  2.0195e-03  7.9842e-04  2.7540e-04  1.9540e-03  4.6877e-04  2.0062e-04  0:00:46 1518
  2902  2.0144e-03  7.9733e-04  2.7978e-04  1.9489e-03  4.6765e-04  1.9998e-04  0:05:40 1517

  iter  continuity  x-velocity  y-velocity      energy           k       omega     time/iter
  2903  2.0107e-03  8.1963e-04  2.7939e-04  1.9454e-03  4.6671e-04  1.9925e-04  0:04:32 1516
  2904  2.0070e-03  8.5057e-04  2.7782e-04  1.9423e-03  4.6592e-04  1.9825e-04  0:03:37 1515
  2905  2.0023e-03  8.5149e-04  2.7808e-04  1.9378e-03  4.6523e-04  1.9735e-04  0:02:54 1514
  2906  1.9988e-03  8.5109e-04  2.8508e-04  1.9342e-03  4.6469e-04  1.9682e-04  0:02:19 1513
  2907  1.9987e-03  8.7377e-04  2.8442e-04  1.9339e-03  4.6422e-04  1.9629e-04  0:01:51 1512
  2908  1.9974e-03  8.8139e-04  2.8014e-04  1.9314e-03  4.6377e-04  1.9574e-04  0:01:29 1511
  2909  2.0001e-03  9.1753e-04  2.8289e-04  1.9332e-03  4.6338e-04  1.9509e-04  0:01:11 1510
  2910  1.9803e-03  8.5191e-04  2.7681e-04  1.9146e-03  4.6308e-04  1.9472e-04  0:00:57 1509
  2911  1.9711e-03  8.2226e-04  2.7591e-04  1.9064e-03  4.6293e-04  1.9434e-04  0:00:45 1508
  2912  1.9621e-03  7.8847e-04  2.7792e-04  1.8980e-03  4.6297e-04  1.9406e-04  0:05:38 1507
  2913  1.9549e-03  7.7344e-04  2.7802e-04  1.8915e-03  4.6314e-04  1.9389e-04  0:04:30 1506

  iter  continuity  x-velocity  y-velocity      energy           k       omega     time/iter
  2914  1.9493e-03  7.6239e-04  2.7497e-04  1.8861e-03  4.6346e-04  1.9376e-04  0:03:36 1505
  2915  1.9442e-03  7.5296e-04  2.6977e-04  1.8808e-03  4.6386e-04  1.9367e-04  0:02:53 1504
  2916  1.9419e-03  7.5583e-04  2.6445e-04  1.8784e-03  4.6432e-04  1.9356e-04  0:02:18 1503
  2917  1.9435e-03  7.7987e-04  2.6560e-04  1.8795e-03  4.6490e-04  1.9338e-04  0:01:50 1502
  2918  1.9431e-03  7.9718e-04  2.6945e-04  1.8788e-03  4.6560e-04  1.9329e-04  0:01:28 1501
  2919  1.9437e-03  8.1209e-04  2.7260e-04  1.8801e-03  4.6634e-04  1.9311e-04  0:06:10 1500
  2920  1.9446e-03  8.1388e-04  2.7427e-04  1.8810e-03  4.6712e-04  1.9294e-04  0:04:56 1499
  2921  1.9474e-03  8.2905e-04  2.7315e-04  1.8840e-03  4.6797e-04  1.9290e-04  0:03:57 1498
  2922  1.9517e-03  8.4184e-04  2.7199e-04  1.8881e-03  4.6881e-04  1.9267e-04  0:03:09 1497
  2923  1.9499e-03  8.3102e-04  2.7135e-04  1.8864e-03  4.6961e-04  1.9218e-04  0:02:31 1496
  2924  1.9503e-03  8.2015e-04  2.7034e-04  1.8873e-03  4.7040e-04  1.9141e-04  0:02:01 1495

  iter  continuity  x-velocity  y-velocity      energy           k       omega     time/iter
  2925  1.9507e-03  8.1454e-04  2.7355e-04  1.8879e-03  4.7116e-04  1.9070e-04  0:01:37 1494
  2926  1.9541e-03  8.2255e-04  2.7430e-04  1.8918e-03  4.7190e-04  1.9058e-04  0:01:17 1493
  2927  1.9591e-03  8.4775e-04  2.7399e-04  1.8973e-03  4.7260e-04  1.9026e-04  0:01:02 1492
  2928  1.9602e-03  8.4248e-04  2.7480e-04  1.8990e-03  4.7327e-04  1.8987e-04  0:00:49 1491
  2929  1.9654e-03  8.4010e-04  2.7805e-04  1.9042e-03  4.7413e-04  1.8967e-04  0:05:38 1490
  2930  1.9748e-03  8.6897e-04  2.7548e-04  1.9137e-03  4.7501e-04  1.8960e-04  0:04:30 1489
  2931  1.9796e-03  8.7875e-04  2.7446e-04  1.9183e-03  4.7589e-04  1.8944e-04  0:03:36 1488
  2932  1.9900e-03  8.6637e-04  2.7536e-04  1.9285e-03  4.7668e-04  1.8942e-04  0:02:52 1487
  2933  2.0074e-03  9.2865e-04  2.7874e-04  1.9450e-03  4.7746e-04  1.8956e-04  0:02:18 1486
  2934  2.0069e-03  8.8802e-04  2.7941e-04  1.9456e-03  4.7824e-04  1.8976e-04  0:01:50 1485
  2935  2.0083e-03  8.3776e-04  2.7149e-04  1.9488e-03  4.7905e-04  1.8994e-04  0:01:28 1484

  iter  continuity  x-velocity  y-velocity      energy           k       omega     time/iter
  2936  2.0128e-03  8.1405e-04  2.6693e-04  1.9551e-03  4.7988e-04  1.9000e-04  0:01:10 1483
  2937  2.0192e-03  7.9426e-04  2.6039e-04  1.9625e-03  4.8076e-04  1.9018e-04  0:05:53 1482
  2938  2.0278e-03  7.8052e-04  2.5494e-04  1.9714e-03  4.8170e-04  1.9046e-04  0:04:42 1481
  2939  2.0391e-03  7.7743e-04  2.5139e-04  1.9830e-03  4.8270e-04  1.9068e-04  0:03:45 1480
  2940  2.0529e-03  7.7803e-04  2.5587e-04  1.9966e-03  4.8376e-04  1.9085e-04  0:03:00 1479
  2941  2.0676e-03  7.8642e-04  2.5974e-04  2.0114e-03  4.8492e-04  1.9092e-04  0:02:24 1478
  2942  2.0830e-03  7.9319e-04  2.6048e-04  2.0277e-03  4.8608e-04  1.9104e-04  0:01:55 1477
  2943  2.0991e-03  8.1237e-04  2.5835e-04  2.0441e-03  4.8730e-04  1.9108e-04  0:01:32 1476
  2944  2.1126e-03  8.0378e-04  2.5882e-04  2.0578e-03  4.8855e-04  1.9088e-04  0:01:14 1475
  2945  2.1327e-03  8.2761e-04  2.5617e-04  2.0776e-03  4.8977e-04  1.9069e-04  0:00:59 1474
  2946  2.1527e-03  8.7052e-04  2.5632e-04  2.0976e-03  4.9096e-04  1.9051e-04  0:05:42 1473

  iter  continuity  x-velocity  y-velocity      energy           k       omega     time/iter
  2947  2.1633e-03  8.5645e-04  2.5404e-04  2.1094e-03  4.9213e-04  1.9030e-04  0:04:33 1472
  2948  2.1753e-03  8.1973e-04  2.5563e-04  2.1222e-03  4.9325e-04  1.8990e-04  0:03:38 1471
  2949  2.1858e-03  7.9067e-04  2.5609e-04  2.1333e-03  4.9436e-04  1.8938e-04  0:02:55 1470
  2950  2.1984e-03  7.8903e-04  2.5609e-04  2.1464e-03  4.9543e-04  1.8880e-04  0:02:20 1469
  2951  2.2125e-03  8.1025e-04  2.5705e-04  2.1613e-03  4.9645e-04  1.8821e-04  0:01:52 1468
  2952  2.2226e-03  8.0222e-04  2.5794e-04  2.1721e-03  4.9741e-04  1.8762e-04  0:01:29 1467
  2953  2.2356e-03  7.9916e-04  2.6039e-04  2.1855e-03  4.9833e-04  1.8702e-04  0:01:11 1466
  2954  2.2475e-03  8.0616e-04  2.6269e-04  2.1975e-03  4.9930e-04  1.8657e-04  0:00:57 1465
  2955  2.2610e-03  8.2493e-04  2.6084e-04  2.2113e-03  5.0027e-04  1.8619e-04  0:05:38 1464
  2956  2.2709e-03  8.1847e-04  2.5539e-04  2.2212e-03  5.0112e-04  1.8594e-04  0:04:31 1463
  2957  2.2822e-03  8.2073e-04  2.5464e-04  2.2326e-03  5.0184e-04  1.8579e-04  0:03:36 1462

  iter  continuity  x-velocity  y-velocity      energy           k       omega     time/iter
  2958  2.3008e-03  8.5400e-04  2.5795e-04  2.2504e-03  5.0254e-04  1.8571e-04  0:02:53 1461
  2959  2.3091e-03  8.6983e-04  2.5866e-04  2.2592e-03  5.0322e-04  1.8575e-04  0:02:18 1460
  2960  2.3072e-03  7.9355e-04  2.5201e-04  2.2590e-03  5.0387e-04  1.8580e-04  0:01:51 1459
  2961  2.3120e-03  7.7214e-04  2.4571e-04  2.2651e-03  5.0461e-04  1.8590e-04  0:01:28 1458
  2962  2.3177e-03  7.5317e-04  2.4392e-04  2.2716e-03  5.0537e-04  1.8600e-04  0:01:11 1457
  2963  2.3253e-03  7.4748e-04  2.3917e-04  2.2795e-03  5.0616e-04  1.8596e-04  0:00:56 1456
  2964  2.3333e-03  7.3530e-04  2.3724e-04  2.2874e-03  5.0699e-04  1.8574e-04  0:00:45 1455
  2965  2.3416e-03  7.2014e-04  2.3608e-04  2.2957e-03  5.0780e-04  1.8519e-04  0:05:27 1454
  2966  2.3477e-03  7.0898e-04  2.3492e-04  2.3020e-03  5.0853e-04  1.8454e-04  0:04:21 1453
  2967  2.3546e-03  7.0826e-04  2.3354e-04  2.3094e-03  5.0918e-04  1.8421e-04  0:03:29 1452
  2968  2.3622e-03  7.1984e-04  2.3370e-04  2.3176e-03  5.0970e-04  1.8388e-04  0:02:47 1451

  iter  continuity  x-velocity  y-velocity      energy           k       omega     time/iter
  2969  2.3690e-03  7.2041e-04  2.3513e-04  2.3247e-03  5.1010e-04  1.8328e-04  0:02:14 1450
  2970  2.3773e-03  7.2826e-04  2.3262e-04  2.3330e-03  5.1043e-04  1.8258e-04  0:01:47 1449
  2971  2.3851e-03  7.3442e-04  2.3374e-04  2.3406e-03  5.1069e-04  1.8190e-04  0:01:25 1448
  2972  2.3912e-03  7.4275e-04  2.3516e-04  2.3465e-03  5.1087e-04  1.8134e-04  0:01:08 1447
  2973  2.3938e-03  7.3268e-04  2.3479e-04  2.3498e-03  5.1105e-04  1.8071e-04  0:00:55 1446
  2974  2.3974e-03  7.2812e-04  2.3526e-04  2.3537e-03  5.1119e-04  1.7996e-04  0:00:44 1445
  2975  2.3980e-03  7.1871e-04  2.3480e-04  2.3545e-03  5.1124e-04  1.7914e-04  0:05:24 1444
  2976  2.3988e-03  7.2016e-04  2.3564e-04  2.3556e-03  5.1127e-04  1.7834e-04  0:04:19 1443
  2977  2.3978e-03  7.1684e-04  2.3816e-04  2.3547e-03  5.1128e-04  1.7756e-04  0:03:27 1442
  2978  2.3939e-03  7.1329e-04  2.4010e-04  2.3512e-03  5.1119e-04  1.7683e-04  0:02:45 1441
  2979  2.3891e-03  7.0384e-04  2.4215e-04  2.3469e-03  5.1101e-04  1.7625e-04  0:02:12 1440

  iter  continuity  x-velocity  y-velocity      energy           k       omega     time/iter
  2980  2.3848e-03  7.0211e-04  2.4647e-04  2.3428e-03  5.1083e-04  1.7579e-04  0:01:46 1439
  2981  2.3807e-03  7.1646e-04  2.4741e-04  2.3390e-03  5.1059e-04  1.7536e-04  0:01:24 1438
  2982  2.3751e-03  7.3252e-04  2.4710e-04  2.3338e-03  5.1039e-04  1.7500e-04  0:01:08 1437
  2983  2.3671e-03  7.3410e-04  2.4737e-04  2.3261e-03  5.1015e-04  1.7471e-04  0:00:54 1436
  2984  2.3606e-03  7.3116e-04  2.4473e-04  2.3198e-03  5.0982e-04  1.7450e-04  0:00:43 1435
  2985  2.3545e-03  7.4514e-04  2.4710e-04  2.3134e-03  5.0939e-04  1.7431e-04  0:00:35 1434
  2986  2.3517e-03  7.7788e-04  2.4558e-04  2.3100e-03  5.0898e-04  1.7413e-04  0:05:14 1433
  2987  2.3429e-03  7.9883e-04  2.4152e-04  2.3014e-03  5.0858e-04  1.7397e-04  0:04:11 1432
  2988  2.3224e-03  7.3031e-04  2.3687e-04  2.2822e-03  5.0811e-04  1.7382e-04  0:03:21 1431
  2989  2.3074e-03  6.8993e-04  2.3139e-04  2.2683e-03  5.0772e-04  1.7364e-04  0:02:41 1430
  2990  2.2940e-03  6.7149e-04  2.2833e-04  2.2557e-03  5.0731e-04  1.7342e-04  0:02:08 1429

  iter  continuity  x-velocity  y-velocity      energy           k       omega     time/iter
  2991  2.2828e-03  6.6997e-04  2.2837e-04  2.2449e-03  5.0690e-04  1.7310e-04  0:01:43 1428
  2992  2.2722e-03  6.6196e-04  2.2764e-04  2.2343e-03  5.0643e-04  1.7270e-04  0:01:22 1427
  2993  2.2600e-03  6.5325e-04  2.2415e-04  2.2221e-03  5.0599e-04  1.7211e-04  0:01:06 1426
  2994  2.2462e-03  6.4070e-04  2.2390e-04  2.2085e-03  5.0553e-04  1.7138e-04  0:00:52 1425
  2995  2.2361e-03  6.5130e-04  2.2116e-04  2.1983e-03  5.0499e-04  1.7059e-04  0:00:42 1424
  2996  2.2258e-03  6.7869e-04  2.2048e-04  2.1879e-03  5.0436e-04  1.6993e-04  0:05:18 1423
  2997  2.2104e-03  6.7631e-04  2.2002e-04  2.1728e-03  5.0369e-04  1.6930e-04  0:04:14 1422
  2998  2.1912e-03  6.3517e-04  2.1500e-04  2.1542e-03  5.0293e-04  1.6868e-04  0:03:23 1421
  2999  2.1753e-03  6.0872e-04  2.1246e-04  2.1385e-03  5.0211e-04  1.6824e-04  0:02:43 1420
  3000  2.1603e-03  6.1167e-04  2.1106e-04  2.1238e-03  5.0121e-04  1.6784e-04  0:02:10 1419
  3001  2.1447e-03  6.2266e-04  2.0945e-04  2.1083e-03  5.0026e-04  1.6730e-04  0:01:44 1418

  iter  continuity  x-velocity  y-velocity      energy           k       omega     time/iter
  3002  2.1254e-03  6.0355e-04  2.0966e-04  2.0895e-03  4.9929e-04  1.6667e-04  0:01:23 1417
  3003  2.1075e-03  6.1098e-04  2.1007e-04  2.0719e-03  4.9832e-04  1.6577e-04  0:01:06 1416
  3004  2.0887e-03  6.0871e-04  2.1030e-04  2.0532e-03  4.9735e-04  1.6480e-04  0:00:53 1415
  3005  2.0697e-03  6.0700e-04  2.0764e-04  2.0343e-03  4.9644e-04  1.6398e-04  0:05:25 1414
  3006  2.0513e-03  6.1869e-04  2.0666e-04  2.0157e-03  4.9556e-04  1.6337e-04  0:04:20 1413
  3007  2.0342e-03  6.5338e-04  2.0550e-04  1.9986e-03  4.9467e-04  1.6261e-04  0:03:28 1412
  3008  2.0099e-03  6.3598e-04  2.0672e-04  1.9744e-03  4.9383e-04  1.6184e-04  0:02:46 1411
  3009  1.9865e-03  6.1878e-04  2.0785e-04  1.9513e-03  4.9309e-04  1.6110e-04  0:02:13 1410
  3010  1.9644e-03  6.1811e-04  2.1067e-04  1.9294e-03  4.9231e-04  1.6044e-04  0:01:46 1409
  3011  1.9422e-03  6.1546e-04  2.1533e-04  1.9073e-03  4.9151e-04  1.5981e-04  0:01:25 1408
  3012  1.9225e-03  6.3834e-04  2.1785e-04  1.8877e-03  4.9065e-04  1.5907e-04  0:01:08 1407

  iter  continuity  x-velocity  y-velocity      energy           k       omega     time/iter
  3013  1.9016e-03  6.4827e-04  2.1971e-04  1.8668e-03  4.8973e-04  1.5846e-04  0:00:54 1406
  3014  1.8774e-03  6.4221e-04  2.1763e-04  1.8428e-03  4.8883e-04  1.5787e-04  0:05:24 1405
  3015  1.8571e-03  6.3363e-04  2.1847e-04  1.8224e-03  4.8793e-04  1.5730e-04  0:04:19 1404
  3016  1.8388e-03  6.2650e-04  2.2044e-04  1.8036e-03  4.8702e-04  1.5668e-04  0:03:27 1403
  3017  1.8220e-03  6.4495e-04  2.2107e-04  1.7863e-03  4.8609e-04  1.5599e-04  0:02:46 1402
  3018  1.8112e-03  6.9112e-04  2.2068e-04  1.7747e-03  4.8518e-04  1.5527e-04  0:02:12 1401
  3019  1.7868e-03  6.9464e-04  2.1830e-04  1.7509e-03  4.8428e-04  1.5445e-04  0:01:46 1400
  3020  1.7589e-03  6.1751e-04  2.1329e-04  1.7241e-03  4.8336e-04  1.5358e-04  0:01:25 1399
  3021  1.7373e-03  5.8908e-04  2.1281e-04  1.7032e-03  4.8244e-04  1.5271e-04  0:01:08 1398
  3022  1.7178e-03  5.7358e-04  2.1231e-04  1.6843e-03  4.8148e-04  1.5183e-04  0:00:54 1397
  3023  1.6997e-03  5.5451e-04  2.0948e-04  1.6663e-03  4.8043e-04  1.5096e-04  0:00:43 1396

  iter  continuity  x-velocity  y-velocity      energy           k       omega     time/iter
  3024  1.6822e-03  5.4474e-04  2.0728e-04  1.6490e-03  4.7929e-04  1.5000e-04  0:05:14 1395
  3025  1.6644e-03  5.3413e-04  2.0562e-04  1.6312e-03  4.7811e-04  1.4894e-04  0:04:11 1394
  3026  1.6478e-03  5.2679e-04  2.0170e-04  1.6146e-03  4.7682e-04  1.4796e-04  0:03:20 1393
  3027  1.6326e-03  5.3438e-04  2.0022e-04  1.5994e-03  4.7548e-04  1.4711e-04  0:02:40 1392
  3028  1.6182e-03  5.4290e-04  1.9806e-04  1.5848e-03  4.7408e-04  1.4633e-04  0:02:08 1391
  3029  1.6034e-03  5.3458e-04  1.9402e-04  1.5697e-03  4.7266e-04  1.4556e-04  0:01:42 1390
  3030  1.5891e-03  5.2888e-04  1.9163e-04  1.5551e-03  4.7121e-04  1.4469e-04  0:01:22 1389
  3031  1.5755e-03  5.2667e-04  1.9158e-04  1.5412e-03  4.6973e-04  1.4387e-04  0:01:05 1388
  3032  1.5622e-03  5.2841e-04  1.9105e-04  1.5279e-03  4.6823e-04  1.4324e-04  0:00:52 1387
  3033  1.5487e-03  5.3182e-04  1.9089e-04  1.5145e-03  4.6670e-04  1.4254e-04  0:00:42 1386
  3034  1.5341e-03  5.2667e-04  1.9149e-04  1.5004e-03  4.6512e-04  1.4183e-04  0:05:10 1385

  iter  continuity  x-velocity  y-velocity      energy           k       omega     time/iter
  3035  1.5227e-03  5.3910e-04  1.9332e-04  1.4894e-03  4.6350e-04  1.4137e-04  0:04:08 1384
  3036  1.5124e-03  5.4743e-04  1.9404e-04  1.4792e-03  4.6184e-04  1.4092e-04  0:03:18 1383
  3037  1.5006e-03  5.3169e-04  1.8973e-04  1.4671e-03  4.6014e-04  1.4037e-04  0:02:39 1382
  3038  1.4919e-03  5.3357e-04  1.8644e-04  1.4581e-03  4.5847e-04  1.3987e-04  0:02:07 1381
  3039  1.4860e-03  5.5308e-04  1.8520e-04  1.4518e-03  4.5683e-04  1.3940e-04  0:01:41 1380
  3040  1.4799e-03  5.6420e-04  1.8449e-04  1.4456e-03  4.5515e-04  1.3892e-04  0:01:21 1379
  3041  1.4700e-03  5.5064e-04  1.8513e-04  1.4362e-03  4.5345e-04  1.3838e-04  0:01:05 1378
  3042  1.4656e-03  5.5430e-04  1.8656e-04  1.4320e-03  4.5173e-04  1.3778e-04  0:00:52 1377
  3043  1.4620e-03  5.6080e-04  1.8972e-04  1.4288e-03  4.5000e-04  1.3717e-04  0:00:41 1376
  3044  1.4579e-03  5.5199e-04  1.9229e-04  1.4248e-03  4.4827e-04  1.3657e-04  0:05:08 1375
  3045  1.4559e-03  5.4621e-04  1.9301e-04  1.4230e-03  4.4654e-04  1.3589e-04  0:04:06 1374

  iter  continuity  x-velocity  y-velocity      energy           k       omega     time/iter
  3046  1.4592e-03  5.7194e-04  1.9278e-04  1.4264e-03  4.4484e-04  1.3517e-04  0:03:17 1373
  3047  1.4631e-03  5.9661e-04  1.9285e-04  1.4305e-03  4.4315e-04  1.3455e-04  0:02:37 1372
  3048  1.4661e-03  5.9818e-04  1.9223e-04  1.4336e-03  4.4146e-04  1.3403e-04  0:02:06 1371
  3049  1.4749e-03  6.0897e-04  1.9661e-04  1.4421e-03  4.3979e-04  1.3357e-04  0:01:41 1370
  3050  1.4815e-03  6.0943e-04  2.0346e-04  1.4485e-03  4.3823e-04  1.3331e-04  0:01:20 1369
  3051  1.4886e-03  5.8892e-04  2.0479e-04  1.4556e-03  4.3678e-04  1.3304e-04  0:05:38 1368
  3052  1.4969e-03  5.7645e-04  2.0196e-04  1.4637e-03  4.3539e-04  1.3280e-04  0:04:30 1367
  3053  1.5054e-03  5.6874e-04  2.0048e-04  1.4724e-03  4.3408e-04  1.3250e-04  0:03:36 1366
  3054  1.5242e-03  6.1782e-04  2.0173e-04  1.4911e-03  4.3287e-04  1.3217e-04  0:02:53 1365
  3055  1.5249e-03  5.8748e-04  2.0336e-04  1.4931e-03  4.3174e-04  1.3184e-04  0:02:18 1364
  3056  1.5308e-03  5.2652e-04  2.0188e-04  1.5001e-03  4.3064e-04  1.3148e-04  0:01:50 1363

  iter  continuity  x-velocity  y-velocity      energy           k       omega     time/iter
  3057  1.5403e-03  4.9402e-04  2.0068e-04  1.5102e-03  4.2958e-04  1.3109e-04  0:01:28 1362
  3058  1.5514e-03  4.8379e-04  1.9782e-04  1.5217e-03  4.2867e-04  1.3071e-04  0:01:10 1361
  3059  1.5642e-03  4.8321e-04  1.9755e-04  1.5347e-03  4.2831e-04  1.3034e-04  0:00:56 1360
  3060  1.5779e-03  4.9206e-04  1.9780e-04  1.5487e-03  4.2836e-04  1.3005e-04  0:00:45 1359
  3061  1.5920e-03  4.9902e-04  1.9543e-04  1.5629e-03  4.2858e-04  1.2972e-04  0:05:08 1358
  3062  1.6062e-03  5.0522e-04  1.9276e-04  1.5772e-03  4.2896e-04  1.2961e-04  0:04:06 1357
  3063  1.6201e-03  4.9650e-04  1.9065e-04  1.5910e-03  4.2943e-04  1.2958e-04  0:03:17 1356
  3064  1.6339e-03  4.8424e-04  1.9073e-04  1.6047e-03  4.2998e-04  1.2956e-04  0:02:37 1355
  3065  1.6481e-03  4.7883e-04  1.9173e-04  1.6188e-03  4.3057e-04  1.2955e-04  0:02:06 1354
  3066  1.6624e-03  4.6445e-04  1.9294e-04  1.6329e-03  4.3121e-04  1.2953e-04  0:01:40 1353
  3067  1.6781e-03  4.7127e-04  1.9214e-04  1.6485e-03  4.3186e-04  1.2951e-04  0:01:20 1352

  iter  continuity  x-velocity  y-velocity      energy           k       omega     time/iter
  3068  1.6928e-03  4.7195e-04  1.9093e-04  1.6632e-03  4.3251e-04  1.2939e-04  0:01:04 1351
  3069  1.7067e-03  4.6778e-04  1.9112e-04  1.6772e-03  4.3319e-04  1.2925e-04  0:00:51 1350
  3070  1.7215e-03  4.7674e-04  1.9131e-04  1.6922e-03  4.3389e-04  1.2921e-04  0:05:11 1349
  3071  1.7365e-03  4.9104e-04  1.9112e-04  1.7072e-03  4.3460e-04  1.2910e-04  0:04:08 1348
  3072  1.7514e-03  5.0768e-04  1.9138e-04  1.7221e-03  4.3531e-04  1.2891e-04  0:03:19 1347
  3073  1.7652e-03  5.1736e-04  1.8965e-04  1.7359e-03  4.3597e-04  1.2872e-04  0:02:39 1346
  3074  1.7780e-03  5.1261e-04  1.9030e-04  1.7485e-03  4.3658e-04  1.2855e-04  0:02:07 1345
  3075  1.7903e-03  5.0583e-04  1.9099e-04  1.7606e-03  4.3712e-04  1.2837e-04  0:01:41 1344
  3076  1.8041e-03  5.2758e-04  1.9012e-04  1.7741e-03  4.3759e-04  1.2821e-04  0:01:21 1343
  3077  1.8146e-03  5.3108e-04  1.8867e-04  1.7847e-03  4.3803e-04  1.2815e-04  0:01:05 1342
  3078  1.8237e-03  5.2466e-04  1.8854e-04  1.7942e-03  4.3843e-04  1.2810e-04  0:00:52 1341

  iter  continuity  x-velocity  y-velocity      energy           k       omega     time/iter
  3079  1.8329e-03  5.2494e-04  1.9040e-04  1.8036e-03  4.3881e-04  1.2808e-04  0:00:41 1340
  3080  1.8414e-03  5.2858e-04  1.9286e-04  1.8123e-03  4.3914e-04  1.2809e-04  0:00:33 1339
  3081  1.8485e-03  5.2576e-04  1.9146e-04  1.8195e-03  4.3941e-04  1.2809e-04  0:04:54 1338
  3082  1.8551e-03  5.2144e-04  1.8908e-04  1.8263e-03  4.3964e-04  1.2809e-04  0:03:55 1337
  3083  1.8631e-03  5.3330e-04  1.8909e-04  1.8344e-03  4.3983e-04  1.2807e-04  0:03:08 1336
  3084  1.8716e-03  5.5281e-04  1.8937e-04  1.8428e-03  4.3998e-04  1.2796e-04  0:02:30 1335
  3085  1.8757e-03  5.5759e-04  1.8807e-04  1.8473e-03  4.4010e-04  1.2795e-04  0:02:00 1334
  3086  1.8814e-03  5.7111e-04  1.8794e-04  1.8532e-03  4.4017e-04  1.2806e-04  0:01:36 1333
  3087  1.8854e-03  5.6996e-04  1.9150e-04  1.8573e-03  4.4019e-04  1.2809e-04  0:01:17 1332
  3088  1.8894e-03  5.7965e-04  1.9263e-04  1.8612e-03  4.4021e-04  1.2813e-04  0:01:01 1331
  3089  1.8945e-03  6.0836e-04  1.9250e-04  1.8664e-03  4.4022e-04  1.2805e-04  0:00:49 1330

  iter  continuity  x-velocity  y-velocity      energy           k       omega     time/iter
  3090  1.8986e-03  6.2498e-04  1.9170e-04  1.8703e-03  4.4020e-04  1.2805e-04  0:00:39 1329
  3091  1.8987e-03  6.0903e-04  1.9170e-04  1.8702e-03  4.4014e-04  1.2812e-04  0:04:57 1328
  3092  1.8967e-03  5.8254e-04  1.9310e-04  1.8685e-03  4.4008e-04  1.2811e-04  0:03:57 1327
  3093  1.8976e-03  5.7683e-04  1.9466e-04  1.8693e-03  4.3998e-04  1.2807e-04  0:03:10 1326
  3094  1.9015e-03  6.2683e-04  1.9917e-04  1.8728e-03  4.3983e-04  1.2799e-04  0:02:32 1325
  3095  1.8964e-03  6.2034e-04  1.9764e-04  1.8682e-03  4.3961e-04  1.2792e-04  0:02:01 1324
  3096  1.8870e-03  5.7489e-04  1.9368e-04  1.8595e-03  4.3932e-04  1.2779e-04  0:01:37 1323
  3097  1.8814e-03  5.4991e-04  1.9213e-04  1.8545e-03  4.3893e-04  1.2761e-04  0:01:17 1322
  3098  1.8756e-03  5.3587e-04  1.9064e-04  1.8490e-03  4.3848e-04  1.2740e-04  0:01:02 1321
  3099  1.8699e-03  5.2408e-04  1.9083e-04  1.8434e-03  4.3797e-04  1.2715e-04  0:00:50 1320
  3100  1.8640e-03  5.1919e-04  1.9325e-04  1.8375e-03  4.3736e-04  1.2684e-04  0:00:40 1319

  iter  continuity  x-velocity  y-velocity      energy           k       omega     time/iter
  3101  1.8579e-03  5.1663e-04  1.9213e-04  1.8314e-03  4.3664e-04  1.2643e-04  0:04:55 1318
  3102  1.8509e-03  5.1467e-04  1.9086e-04  1.8243e-03  4.3581e-04  1.2597e-04  0:03:56 1317
  3103  1.8438e-03  5.1164e-04  1.9068e-04  1.8173e-03  4.3486e-04  1.2579e-04  0:03:09 1316
  3104  1.8372e-03  5.1874e-04  1.9123e-04  1.8108e-03  4.3380e-04  1.2560e-04  0:02:31 1315
  3105  1.8300e-03  5.1647e-04  1.9053e-04  1.8035e-03  4.3261e-04  1.2539e-04  0:02:01 1314
  3106  1.8226e-03  5.1625e-04  1.9099e-04  1.7959e-03  4.3128e-04  1.2518e-04  0:01:36 1313
  3107  1.8147e-03  5.1328e-04  1.9089e-04  1.7880e-03  4.2982e-04  1.2500e-04  0:01:17 1312
  3108  1.8069e-03  5.0829e-04  1.8881e-04  1.7802e-03  4.2827e-04  1.2479e-04  0:01:02 1311
  3109  1.8004e-03  5.1654e-04  1.8777e-04  1.7736e-03  4.2660e-04  1.2451e-04  0:00:49 1310
  3110  1.7940e-03  5.2360e-04  1.8703e-04  1.7671e-03  4.2482e-04  1.2427e-04  0:00:39 1309
  3111  1.7876e-03  5.3047e-04  1.8709e-04  1.7606e-03  4.2302e-04  1.2405e-04  0:04:53 1308

  iter  continuity  x-velocity  y-velocity      energy           k       omega     time/iter
  3112  1.7833e-03  5.5042e-04  1.8668e-04  1.7561e-03  4.2116e-04  1.2388e-04  0:03:54 1307
  3113  1.7797e-03  5.7525e-04  1.8623e-04  1.7523e-03  4.1923e-04  1.2366e-04  0:03:07 1306
  3114  1.7743e-03  5.7267e-04  1.8675e-04  1.7469e-03  4.1721e-04  1.2341e-04  0:02:30 1305
  3115  1.7674e-03  5.4995e-04  1.8624e-04  1.7400e-03  4.1511e-04  1.2319e-04  0:02:00 1304
  3116  1.7629e-03  5.3333e-04  1.8390e-04  1.7355e-03  4.1293e-04  1.2298e-04  0:01:36 1303
  3117  1.7591e-03  5.2269e-04  1.8230e-04  1.7320e-03  4.1068e-04  1.2279e-04  0:01:16 1302
  3118  1.7578e-03  5.1993e-04  1.8197e-04  1.7309e-03  4.0842e-04  1.2250e-04  0:01:01 1301
  3119  1.7588e-03  5.1894e-04  1.8382e-04  1.7320e-03  4.0613e-04  1.2240e-04  0:00:49 1300
  3120  1.7617e-03  5.2107e-04  1.8522e-04  1.7350e-03  4.0376e-04  1.2234e-04  0:00:39 1299
  3121  1.7660e-03  5.2284e-04  1.8416e-04  1.7392e-03  4.0132e-04  1.2224e-04  0:00:31 1298
  3122  1.7715e-03  5.1969e-04  1.8315e-04  1.7446e-03  3.9882e-04  1.2208e-04  0:04:44 1297

  iter  continuity  x-velocity  y-velocity      energy           k       omega     time/iter
[...]
  3905  1.1649e-03  3.1766e-04  1.1860e-04  1.1214e-03  1.9218e-04  8.8615e-05  0:00:24  514
  3906  1.1572e-03  3.1458e-04  1.1851e-04  1.1137e-03  1.9214e-04  8.8672e-05  0:00:19  513
  3907  1.1495e-03  3.0862e-04  1.1826e-04  1.1061e-03  1.9215e-04  8.8808e-05  0:00:15  512
  3908  1.1424e-03  3.0698e-04  1.1759e-04  1.0990e-03  1.9214e-04  8.8973e-05  0:01:55  511
  3909  1.1354e-03  3.0272e-04  1.1750e-04  1.0920e-03  1.9210e-04  8.9151e-05  0:01:31  510
  3910  1.1293e-03  3.0169e-04  1.1742e-04  1.0859e-03  1.9204e-04  8.9332e-05  0:01:13  509
  3911  1.1242e-03  3.0413e-04  1.1796e-04  1.0809e-03  1.9201e-04  8.9508e-05  0:00:58  508
  3912  1.1201e-03  3.0916e-04  1.1872e-04  1.0770e-03  1.9202e-04  8.9694e-05  0:00:47  507
  3913  1.1164e-03  3.0585e-04  1.1973e-04  1.0733e-03  1.9209e-04  8.9848e-05  0:00:37  506
  3914  1.1139e-03  3.1193e-04  1.2078e-04  1.0710e-03  1.9220e-04  8.9977e-05  0:00:30  505

  iter  continuity  x-velocity  y-velocity      energy           k       omega     time/iter
  3915  1.1122e-03  3.1834e-04  1.2226e-04  1.0693e-03  1.9234e-04  9.0080e-05  0:00:24  504
  3916  1.1110e-03  3.2894e-04  1.2298e-04  1.0681e-03  1.9252e-04  9.0180e-05  0:00:19  503
  3917  1.1102e-03  3.4161e-04  1.2404e-04  1.0674e-03  1.9271e-04  9.0227e-05  0:00:15  502
  3918  1.1091e-03  3.4792e-04  1.2457e-04  1.0662e-03  1.9288e-04  9.0250e-05  0:01:52  501
  3919  1.1074e-03  3.5309e-04  1.2358e-04  1.0646e-03  1.9303e-04  9.0216e-05  0:01:30  500
  3920  1.1058e-03  3.6180e-04  1.2227e-04  1.0631e-03  1.9314e-04  9.0127e-05  0:01:12  499
  3921  1.1044e-03  3.7400e-04  1.2159e-04  1.0616e-03  1.9321e-04  9.0023e-05  0:00:57  498
  3922  1.1012e-03  3.7068e-04  1.2136e-04  1.0584e-03  1.9330e-04  8.9918e-05  0:00:46  497
  3923  1.0969e-03  3.5690e-04  1.2283e-04  1.0542e-03  1.9342e-04  8.9798e-05  0:00:36  496
  3924  1.0925e-03  3.4522e-04  1.2408e-04  1.0498e-03  1.9362e-04  8.9696e-05  0:00:29  495
  3925  1.0881e-03  3.4020e-04  1.2543e-04  1.0458e-03  1.9389e-04  8.9644e-05  0:00:23  494

  iter  continuity  x-velocity  y-velocity      energy           k       omega     time/iter
  3926  1.0845e-03  3.3616e-04  1.2665e-04  1.0424e-03  1.9423e-04  8.9664e-05  0:00:19  493
  3927  1.0813e-03  3.3443e-04  1.2808e-04  1.0394e-03  1.9459e-04  8.9748e-05  0:01:53  492
  3928  1.0778e-03  3.2858e-04  1.2945e-04  1.0363e-03  1.9504e-04  8.9914e-05  0:01:30  491
  3929  1.0752e-03  3.3778e-04  1.3076e-04  1.0345e-03  1.9551e-04  9.0107e-05  0:01:12  490
  3930  1.0739e-03  3.5013e-04  1.3162e-04  1.0337e-03  1.9595e-04  9.0358e-05  0:00:58  489
  3931  1.0730e-03  3.5318e-04  1.3248e-04  1.0331e-03  1.9640e-04  9.0624e-05  0:00:46  488
  3932  1.0727e-03  3.5188e-04  1.3345e-04  1.0331e-03  1.9685e-04  9.0925e-05  0:00:37  487
  3933  1.0728e-03  3.5088e-04  1.3417e-04  1.0335e-03  1.9737e-04  9.1209e-05  0:00:29  486
  3934  1.0735e-03  3.5461e-04  1.3484e-04  1.0345e-03  1.9794e-04  9.1439e-05  0:00:23  485
  3935  1.0746e-03  3.5076e-04  1.3562e-04  1.0358e-03  1.9856e-04  9.1636e-05  0:00:19  484
  3936  1.0765e-03  3.5138e-04  1.3551e-04  1.0379e-03  1.9926e-04  9.1825e-05  0:00:15  483

  iter  continuity  x-velocity  y-velocity      energy           k       omega     time/iter
  3937  1.0780e-03  3.4284e-04  1.3592e-04  1.0398e-03  1.9994e-04  9.1968e-05  0:00:12  482
  3938  1.0803e-03  3.4051e-04  1.3705e-04  1.0423e-03  2.0070e-04  9.2070e-05  0:01:46  481
  3939  1.0828e-03  3.3535e-04  1.3837e-04  1.0453e-03  2.0152e-04  9.2202e-05  0:01:24  480
  3940  1.0857e-03  3.3086e-04  1.3914e-04  1.0485e-03  2.0246e-04  9.2335e-05  0:01:07  479
  3941  1.0902e-03  3.4151e-04  1.4056e-04  1.0534e-03  2.0337e-04  9.2527e-05  0:00:54  478
  3942  1.0956e-03  3.5271e-04  1.4272e-04  1.0591e-03  2.0427e-04  9.2654e-05  0:00:43  477
  3943  1.1024e-03  3.7855e-04  1.4419e-04  1.0664e-03  2.0516e-04  9.2529e-05  0:00:34  476
  3944  1.1071e-03  3.8319e-04  1.4432e-04  1.0714e-03  2.0600e-04  9.2363e-05  0:00:27  475
  3945  1.1103e-03  3.7119e-04  1.4434e-04  1.0749e-03  2.0676e-04  9.2514e-05  0:00:22  474
  3946  1.1135e-03  3.5441e-04  1.4367e-04  1.0783e-03  2.0756e-04  9.2710e-05  0:00:17  473
  3947  1.1174e-03  3.4495e-04  1.4274e-04  1.0826e-03  2.0838e-04  9.2822e-05  0:00:14  472

  iter  continuity  x-velocity  y-velocity      energy           k       omega     time/iter
  3948  1.1226e-03  3.4580e-04  1.4104e-04  1.0882e-03  2.0917e-04  9.2879e-05  0:01:45  471
  3949  1.1283e-03  3.5237e-04  1.4001e-04  1.0943e-03  2.0998e-04  9.2648e-05  0:01:24  470
  3950  1.1342e-03  3.5522e-04  1.3975e-04  1.1005e-03  2.1079e-04  9.2411e-05  0:01:07  469
  3951  1.1404e-03  3.5527e-04  1.3983e-04  1.1071e-03  2.1161e-04  9.2471e-05  0:00:54  468
  3952  1.1470e-03  3.5751e-04  1.4006e-04  1.1141e-03  2.1251e-04  9.2519e-05  0:00:43  467
  3953  1.1541e-03  3.5927e-04  1.4030e-04  1.1216e-03  2.1339e-04  9.2525e-05  0:00:34  466
  3954  1.1610e-03  3.5486e-04  1.4036e-04  1.1289e-03  2.1429e-04  9.2576e-05  0:00:27  465
  3955  1.1689e-03  3.5845e-04  1.4048e-04  1.1374e-03  2.1517e-04  9.2641e-05  0:00:22  464
  3956  1.1779e-03  3.6554e-04  1.4080e-04  1.1468e-03  2.1604e-04  9.2704e-05  0:00:17  463
  3957  1.1869e-03  3.6445e-04  1.4129e-04  1.1562e-03  2.1691e-04  9.2960e-05  0:01:46  462
  3958  1.1961e-03  3.5776e-04  1.4222e-04  1.1660e-03  2.1776e-04  9.3089e-05  0:01:25  461

  iter  continuity  x-velocity  y-velocity      energy           k       omega     time/iter
  3959  1.2066e-03  3.6859e-04  1.4332e-04  1.1771e-03  2.1864e-04  9.3004e-05  0:01:08  460
  3960  1.2184e-03  3.7893e-04  1.4470e-04  1.1891e-03  2.1951e-04  9.2394e-05  0:00:54  459
  3961  1.2310e-03  4.0068e-04  1.4573e-04  1.2021e-03  2.2037e-04  9.2189e-05  0:00:43  458
  3962  1.2423e-03  4.1022e-04  1.4645e-04  1.2139e-03  2.2121e-04  9.2292e-05  0:00:34  457
  3963  1.2525e-03  4.0177e-04  1.4776e-04  1.2244e-03  2.2204e-04  9.2278e-05  0:00:27  456
  3964  1.2623e-03  3.8312e-04  1.4945e-04  1.2345e-03  2.2283e-04  9.2094e-05  0:00:22  455
  3965  1.2721e-03  3.6408e-04  1.4979e-04  1.2446e-03  2.2355e-04  9.1791e-05  0:00:18  454
  3966  1.2823e-03  3.4914e-04  1.4956e-04  1.2551e-03  2.2423e-04  9.1512e-05  0:00:14  453
  3967  1.2931e-03  3.4371e-04  1.4882e-04  1.2662e-03  2.2487e-04  9.1278e-05  0:01:42  452
  3968  1.3047e-03  3.5011e-04  1.4846e-04  1.2780e-03  2.2550e-04  9.1020e-05  0:01:21  451
  3969  1.3159e-03  3.5432e-04  1.4952e-04  1.2895e-03  2.2606e-04  9.0871e-05  0:01:05  450

  iter  continuity  x-velocity  y-velocity      energy           k       omega     time/iter
  3970  1.3266e-03  3.5097e-04  1.5039e-04  1.3004e-03  2.2661e-04  9.0724e-05  0:00:52  449
  3971  1.3372e-03  3.4813e-04  1.5054e-04  1.3113e-03  2.2711e-04  9.0701e-05  0:00:41  448
  3972  1.3478e-03  3.4568e-04  1.5025e-04  1.3222e-03  2.2757e-04  9.0634e-05  0:00:33  447
  3973  1.3587e-03  3.4855e-04  1.4859e-04  1.3334e-03  2.2797e-04  9.0519e-05  0:00:26  446
  3974  1.3704e-03  3.5722e-04  1.4759e-04  1.3453e-03  2.2827e-04  9.0353e-05  0:00:21  445
  3975  1.3819e-03  3.6035e-04  1.4626e-04  1.3571e-03  2.2851e-04  8.9984e-05  0:00:17  444
  3976  1.3933e-03  3.6485e-04  1.4577e-04  1.3686e-03  2.2871e-04  8.9784e-05  0:01:42  443
  3977  1.4047e-03  3.7036e-04  1.4536e-04  1.3801e-03  2.2891e-04  8.9506e-05  0:01:21  442
  3978  1.4163e-03  3.8010e-04  1.4452e-04  1.3919e-03  2.2911e-04  8.9319e-05  0:01:05  441
  3979  1.4279e-03  3.9991e-04  1.4500e-04  1.4036e-03  2.2931e-04  8.9280e-05  0:00:52  440
  3980  1.4375e-03  3.9849e-04  1.4476e-04  1.4135e-03  2.2949e-04  8.9147e-05  0:00:41  439

  iter  continuity  x-velocity  y-velocity      energy           k       omega     time/iter
  3981  1.4471e-03  3.9421e-04  1.4368e-04  1.4233e-03  2.2962e-04  8.8894e-05  0:00:33  438
  3982  1.4561e-03  3.8691e-04  1.4237e-04  1.4325e-03  2.2970e-04  8.8640e-05  0:00:26  437
  3983  1.4648e-03  3.8167e-04  1.4209e-04  1.4414e-03  2.2975e-04  8.8373e-05  0:00:21  436
  3984  1.4740e-03  3.8411e-04  1.4246e-04  1.4507e-03  2.2974e-04  8.8000e-05  0:01:44  435
  3985  1.4819e-03  3.6915e-04  1.4191e-04  1.4588e-03  2.2964e-04  8.7629e-05  0:01:23  434
  3986  1.4902e-03  3.6709e-04  1.4101e-04  1.4673e-03  2.2946e-04  8.7242e-05  0:01:06  433
  3987  1.4978e-03  3.6467e-04  1.4014e-04  1.4752e-03  2.2926e-04  8.6876e-05  0:00:53  432
  3988  1.5060e-03  3.6655e-04  1.4001e-04  1.4835e-03  2.2901e-04  8.6543e-05  0:00:42  431
  3989  1.5145e-03  3.7421e-04  1.4129e-04  1.4923e-03  2.2871e-04  8.6254e-05  0:00:34  430
  3990  1.5223e-03  3.7569e-04  1.4008e-04  1.5002e-03  2.2838e-04  8.5941e-05  0:00:27  429
  3991  1.5281e-03  3.5163e-04  1.3850e-04  1.5062e-03  2.2802e-04  8.5599e-05  0:00:21  428

  iter  continuity  x-velocity  y-velocity      energy           k       omega     time/iter
  3992  1.5353e-03  3.4548e-04  1.3762e-04  1.5135e-03  2.2761e-04  8.5282e-05  0:00:17  427
  3993  1.5428e-03  3.4802e-04  1.3708e-04  1.5210e-03  2.2715e-04  8.4979e-05  0:00:14  426
  3994  1.5499e-03  3.4960e-04  1.3766e-04  1.5282e-03  2.2668e-04  8.4680e-05  0:01:36  425
  3995  1.5564e-03  3.4327e-04  1.3840e-04  1.5346e-03  2.2617e-04  8.4316e-05  0:01:17  424
  3996  1.5629e-03  3.4065e-04  1.3812e-04  1.5411e-03  2.2565e-04  8.3912e-05  0:01:01  423
  3997  1.5693e-03  3.4102e-04  1.3756e-04  1.5476e-03  2.2509e-04  8.3569e-05  0:00:49  422
  3998  1.5754e-03  3.4237e-04  1.3766e-04  1.5537e-03  2.2451e-04  8.3257e-05  0:00:39  421
  3999  1.5808e-03  3.3910e-04  1.3682e-04  1.5592e-03  2.2387e-04  8.2820e-05  0:00:31  420
  4000  1.5857e-03  3.3369e-04  1.3596e-04  1.5642e-03  2.2325e-04  8.2384e-05  0:00:25  419
  4001  1.5904e-03  3.2808e-04  1.3515e-04  1.5690e-03  2.2260e-04  8.1931e-05  0:00:20  418
  4002  1.5947e-03  3.2272e-04  1.3444e-04  1.5735e-03  2.2194e-04  8.1616e-05  0:00:16  417

  iter  continuity  x-velocity  y-velocity      energy           k       omega     time/iter
  4003  1.5989e-03  3.2224e-04  1.3338e-04  1.5778e-03  2.2125e-04  8.1420e-05  0:01:36  416
  4004  1.6027e-03  3.2282e-04  1.3263e-04  1.5818e-03  2.2054e-04  8.1195e-05  0:01:16  415
  4005  1.6060e-03  3.1794e-04  1.3179e-04  1.5853e-03  2.1979e-04  8.0947e-05  0:01:01  414
  4006  1.6094e-03  3.1686e-04  1.3005e-04  1.5888e-03  2.1901e-04  8.0684e-05  0:00:49  413
  4007  1.6126e-03  3.1870e-04  1.2863e-04  1.5921e-03  2.1819e-04  8.0409e-05  0:00:39  412
  4008  1.6156e-03  3.2028e-04  1.2692e-04  1.5953e-03  2.1730e-04  8.0146e-05  0:00:31  411
  4009  1.6187e-03  3.2358e-04  1.2499e-04  1.5985e-03  2.1639e-04  7.9843e-05  0:00:25  410
  4010  1.6213e-03  3.1740e-04  1.2302e-04  1.6011e-03  2.1546e-04  7.9494e-05  0:00:20  409
  4011  1.6238e-03  3.1544e-04  1.2263e-04  1.6036e-03  2.1452e-04  7.9139e-05  0:00:16  408
  4012  1.6262e-03  3.1695e-04  1.2274e-04  1.6059e-03  2.1356e-04  7.8802e-05  0:00:13  407
  4013  1.6282e-03  3.2019e-04  1.2226e-04  1.6079e-03  2.1258e-04  7.8440e-05  0:01:31  406

  iter  continuity  x-velocity  y-velocity      energy           k       omega     time/iter
  4014  1.6300e-03  3.2187e-04  1.2209e-04  1.6096e-03  2.1159e-04  7.8054e-05  0:01:13  405
  4015  1.6316e-03  3.2726e-04  1.2274e-04  1.6112e-03  2.1063e-04  7.7650e-05  0:00:58  404
  4016  1.6325e-03  3.2874e-04  1.2365e-04  1.6121e-03  2.0965e-04  7.7257e-05  0:00:46  403
  4017  1.6328e-03  3.2777e-04  1.2363e-04  1.6125e-03  2.0867e-04  7.6880e-05  0:00:37  402
  4018  1.6328e-03  3.2648e-04  1.2202e-04  1.6126e-03  2.0764e-04  7.6511e-05  0:00:30  401
  4019  1.6325e-03  3.2029e-04  1.2014e-04  1.6124e-03  2.0659e-04  7.6183e-05  0:00:24  400
  4020  1.6322e-03  3.1554e-04  1.1886e-04  1.6122e-03  2.0554e-04  7.5855e-05  0:00:19  399
  4021  1.6317e-03  3.1689e-04  1.1828e-04  1.6117e-03  2.0446e-04  7.5549e-05  0:00:15  398
  4022  1.6310e-03  3.1722e-04  1.1769e-04  1.6111e-03  2.0337e-04  7.5247e-05  0:00:12  397
  4023  1.6302e-03  3.1669e-04  1.1741e-04  1.6103e-03  2.0226e-04  7.4972e-05  0:01:29  396
  4024  1.6289e-03  3.1393e-04  1.1700e-04  1.6091e-03  2.0115e-04  7.4700e-05  0:01:11  395

  iter  continuity  x-velocity  y-velocity      energy           k       omega     time/iter
  4025  1.6276e-03  3.1388e-04  1.1614e-04  1.6078e-03  2.0002e-04  7.4425e-05  0:00:57  394
  4026  1.6263e-03  3.1855e-04  1.1508e-04  1.6066e-03  1.9888e-04  7.4129e-05  0:00:45  393
  4027  1.6250e-03  3.2541e-04  1.1397e-04  1.6054e-03  1.9770e-04  7.3755e-05  0:00:36  392
  4028  1.6235e-03  3.3192e-04  1.1367e-04  1.6040e-03  1.9650e-04  7.3489e-05  0:00:29  391
  4029  1.6220e-03  3.4261e-04  1.1426e-04  1.6026e-03  1.9529e-04  7.3170e-05  0:00:23  390
  4030  1.6202e-03  3.4960e-04  1.1271e-04  1.6009e-03  1.9406e-04  7.2802e-05  0:00:18  389
  4031  1.6182e-03  3.6032e-04  1.0919e-04  1.5989e-03  1.9280e-04  7.2397e-05  0:00:15  388
  4032  1.6158e-03  3.6466e-04  1.0670e-04  1.5965e-03  1.9151e-04  7.1928e-05  0:00:12  387
  4033  1.6130e-03  3.6553e-04  1.0618e-04  1.5938e-03  1.9021e-04  7.1486e-05  0:01:26  386
  4034  1.6099e-03  3.6485e-04  1.0604e-04  1.5906e-03  1.8889e-04  7.1083e-05  0:01:09  385
  4035  1.6057e-03  3.4869e-04  1.0482e-04  1.5865e-03  1.8757e-04  7.0724e-05  0:00:55  384

  iter  continuity  x-velocity  y-velocity      energy           k       omega     time/iter
  4036  1.6020e-03  3.4652e-04  1.0497e-04  1.5828e-03  1.8628e-04  7.0410e-05  0:00:44  383
  4037  1.5982e-03  3.4801e-04  1.0476e-04  1.5790e-03  1.8502e-04  7.0182e-05  0:00:35  382
  4038  1.5937e-03  3.3302e-04  1.0320e-04  1.5745e-03  1.8379e-04  6.9964e-05  0:00:28  381
  4039  1.5895e-03  3.3064e-04  1.0135e-04  1.5704e-03  1.8258e-04  6.9725e-05  0:00:22  380
  4040  1.5847e-03  3.1831e-04  1.0090e-04  1.5657e-03  1.8136e-04  6.9521e-05  0:00:18  379
  4041  1.5800e-03  3.1435e-04  1.0104e-04  1.5610e-03  1.8015e-04  6.9357e-05  0:00:14  378
  4042  1.5750e-03  3.1369e-04  1.0098e-04  1.5560e-03  1.7896e-04  6.9329e-05  0:00:11  377
  4043  1.5696e-03  3.1037e-04  9.9613e-05  1.5508e-03  1.7775e-04  6.9345e-05  0:01:24  376
  4044  1.5640e-03  3.0238e-04  9.6774e-05  1.5453e-03  1.7651e-04  6.9298e-05  0:01:07  375
  4045  1.5582e-03  2.9277e-04  9.5442e-05  1.5395e-03  1.7525e-04  6.9180e-05  0:00:54  374
  4046  1.5523e-03  2.8814e-04  9.4940e-05  1.5336e-03  1.7400e-04  6.8999e-05  0:00:43  373

  iter  continuity  x-velocity  y-velocity      energy           k       omega     time/iter
  4047  1.5460e-03  2.7627e-04  9.4837e-05  1.5274e-03  1.7272e-04  6.8765e-05  0:00:34  372
  4048  1.5392e-03  2.6473e-04  9.4805e-05  1.5205e-03  1.7142e-04  6.8495e-05  0:00:27  371
  4049  1.5319e-03  2.5760e-04  9.3795e-05  1.5133e-03  1.7014e-04  6.8098e-05  0:00:22  370
  4050  1.5244e-03  2.5735e-04  9.2684e-05  1.5059e-03  1.6885e-04  6.7768e-05  0:00:17  369
  4051  1.5166e-03  2.5699e-04  9.2199e-05  1.4982e-03  1.6750e-04  6.7467e-05  0:00:14  368
  4052  1.5085e-03  2.5943e-04  9.2164e-05  1.4901e-03  1.6613e-04  6.7145e-05  0:00:11  367
  4053  1.4998e-03  2.5316e-04  9.2172e-05  1.4814e-03  1.6475e-04  6.6809e-05  0:01:22  366
  4054  1.4906e-03  2.4382e-04  9.2205e-05  1.4723e-03  1.6337e-04  6.6516e-05  0:01:05  365
  4055  1.4812e-03  2.3838e-04  9.2266e-05  1.4629e-03  1.6199e-04  6.6183e-05  0:00:52  364
  4056  1.4714e-03  2.3580e-04  9.2508e-05  1.4532e-03  1.6063e-04  6.5901e-05  0:00:42  363
  4057  1.4616e-03  2.3994e-04  9.2309e-05  1.4435e-03  1.5928e-04  6.5692e-05  0:00:33  362

  iter  continuity  x-velocity  y-velocity      energy           k       omega     time/iter
  4058  1.4515e-03  2.4544e-04  9.1673e-05  1.4335e-03  1.5793e-04  6.5450e-05  0:00:27  361
  4059  1.4411e-03  2.5207e-04  9.0559e-05  1.4232e-03  1.5661e-04  6.5172e-05  0:00:21  360
  4060  1.4303e-03  2.5760e-04  8.9762e-05  1.4125e-03  1.5528e-04  6.4855e-05  0:00:17  359
  4061  1.4195e-03  2.6755e-04  8.9312e-05  1.4017e-03  1.5398e-04  6.4542e-05  0:00:13  358
  4062  1.4081e-03  2.7281e-04  8.9093e-05  1.3904e-03  1.5269e-04  6.4224e-05  0:00:11  357
  4063  1.3964e-03  2.7030e-04  8.8428e-05  1.3788e-03  1.5142e-04  6.3882e-05  0:01:20  356
  4064  1.3839e-03  2.6113e-04  8.8060e-05  1.3664e-03  1.5016e-04  6.3557e-05  0:01:04  355
  4065  1.3711e-03  2.4058e-04  8.6945e-05  1.3536e-03  1.4893e-04  6.3203e-05  0:00:51  354
  4066  1.3585e-03  2.2972e-04  8.5927e-05  1.3411e-03  1.4773e-04  6.2851e-05  0:00:40  353
  4067  1.3458e-03  2.2086e-04  8.5660e-05  1.3285e-03  1.4660e-04  6.2524e-05  0:00:32  352
  4068  1.3333e-03  2.1782e-04  8.5569e-05  1.3160e-03  1.4554e-04  6.2212e-05  0:00:26  351

  iter  continuity  x-velocity  y-velocity      energy           k       omega     time/iter
  4069  1.3208e-03  2.1747e-04  8.5053e-05  1.3036e-03  1.4451e-04  6.1935e-05  0:00:21  350
  4070  1.3083e-03  2.2064e-04  8.4861e-05  1.2913e-03  1.4355e-04  6.1670e-05  0:00:16  349
  4071  1.2958e-03  2.2155e-04  8.4939e-05  1.2788e-03  1.4262e-04  6.1408e-05  0:00:13  348
  4072  1.2830e-03  2.1312e-04  8.5241e-05  1.2661e-03  1.4173e-04  6.1166e-05  0:00:10  347
  4073  1.2705e-03  2.0755e-04  8.4022e-05  1.2537e-03  1.4085e-04  6.0926e-05  0:01:18  346
  4074  1.2581e-03  2.0396e-04  8.2516e-05  1.2415e-03  1.3997e-04  6.0655e-05  0:01:02  345
  4075  1.2459e-03  2.0084e-04  8.0354e-05  1.2294e-03  1.3910e-04  6.0401e-05  0:00:49  344
  4076  1.2339e-03  2.0161e-04  7.9175e-05  1.2174e-03  1.3827e-04  6.0162e-05  0:00:39  343
  4077  1.2222e-03  2.0530e-04  7.8970e-05  1.2058e-03  1.3744e-04  5.9930e-05  0:00:31  342
  4078  1.2106e-03  2.0929e-04  7.9371e-05  1.1943e-03  1.3666e-04  5.9650e-05  0:00:25  341
  4079  1.1993e-03  2.1344e-04  8.0611e-05  1.1830e-03  1.3596e-04  5.9541e-05  0:00:20  340

  iter  continuity  x-velocity  y-velocity      energy           k       omega     time/iter
  4080  1.1880e-03  2.1863e-04  8.3321e-05  1.1717e-03  1.3536e-04  5.9461e-05  0:00:16  339
  4081  1.1769e-03  2.2655e-04  8.6577e-05  1.1605e-03  1.3484e-04  5.9390e-05  0:00:13  338
  4082  1.1658e-03  2.2819e-04  9.0322e-05  1.1494e-03  1.3441e-04  5.9334e-05  0:00:10  337
  4083  1.1546e-03  2.2360e-04  9.4705e-05  1.1380e-03  1.3400e-04  5.9263e-05  0:01:15  336
  4084  1.1431e-03  2.1722e-04  9.9405e-05  1.1263e-03  1.3363e-04  5.9188e-05  0:01:00  335
  4085  1.1316e-03  2.1600e-04  1.0203e-04  1.1148e-03  1.3325e-04  5.9117e-05  0:00:48  334
  4086  1.1204e-03  2.1856e-04  1.0277e-04  1.1037e-03  1.3294e-04  5.9069e-05  0:00:38  333
  4087  1.1092e-03  2.2102e-04  1.0354e-04  1.0925e-03  1.3259e-04  5.8972e-05  0:00:30  332
  4088  1.0973e-03  2.1732e-04  1.0176e-04  1.0807e-03  1.3220e-04  5.8803e-05  0:00:24  331
  4089  1.0848e-03  2.1486e-04  9.7972e-05  1.0684e-03  1.3174e-04  5.8559e-05  0:00:19  330
  4090  1.0723e-03  2.1444e-04  9.3302e-05  1.0562e-03  1.3119e-04  5.8240e-05  0:00:15  329

  iter  continuity  x-velocity  y-velocity      energy           k       omega     time/iter
  4091  1.0599e-03  2.1594e-04  8.9739e-05  1.0439e-03  1.3068e-04  5.7873e-05  0:00:12  328
  4092  1.0476e-03  2.2348e-04  8.7920e-05  1.0317e-03  1.3022e-04  5.7561e-05  0:00:10  327
  4093  1.0346e-03  2.2480e-04  8.6165e-05  1.0191e-03  1.2975e-04  5.7362e-05  0:01:13  326
  4094  1.0217e-03  2.2369e-04  8.5058e-05  1.0064e-03  1.2939e-04  5.7218e-05  0:00:58  325
  4095  1.0092e-03  2.2118e-04  8.2924e-05  9.9414e-04  1.2911e-04  5.7089e-05  0:00:46  324
  4096  9.9732e-04  2.2312e-04  8.0499e-05  9.8238e-04  1.2890e-04  5.6933e-05  0:00:37  323
! 4096 solution is converged

> /plot/plot yes loading.txt yes no no absolute-pressure yes 1 0 upper-blade ()

> ;exit yes

> /exit y

Posting ANSYS Product Improvement Program performance data 
Done.
(cx-gui-do cx-activate-item "Question*OK")
