
              Welcome to ANSYS Fluent 2021 R2

              Copyright 1987-2021 ANSYS, Inc. All Rights Reserved.
              Unauthorized use, distribution or duplication is prohibited.
              This product is subject to U.S. laws governing export and re-export.
              For full Legal Notice, see documentation.

Build Time: May 28 2021 13:54:56 EDT  Build Id: 10201  
 

     --------------------------------------------------------------
     This is an academic version of ANSYS FLUENT. Usage of this product
     license is limited to the terms and conditions specified in your ANSYS
     license form, additional terms section.
     --------------------------------------------------------------
Host spawning Node 0 on machine "WL-CH-009" (win64).

-------------------------------------------------------------------------------
ID    Hostname   Core   O.S.         PID    Vendor                       
-------------------------------------------------------------------------------
n31   WL-CH-009  32/36  Windows-x64  44776  Intel(R) Xeon(R) W-2295      
n30   WL-CH-009  31/36  Windows-x64  19424  Intel(R) Xeon(R) W-2295      
n29   WL-CH-009  30/36  Windows-x64  22140  Intel(R) Xeon(R) W-2295      
n28   WL-CH-009  29/36  Windows-x64  38832  Intel(R) Xeon(R) W-2295      
n27   WL-CH-009  28/36  Windows-x64  40328  Intel(R) Xeon(R) W-2295      
n26   WL-CH-009  27/36  Windows-x64  27444  Intel(R) Xeon(R) W-2295      
n25   WL-CH-009  26/36  Windows-x64  2580   Intel(R) Xeon(R) W-2295      
n24   WL-CH-009  25/36  Windows-x64  31480  Intel(R) Xeon(R) W-2295      
n23   WL-CH-009  24/36  Windows-x64  43112  Intel(R) Xeon(R) W-2295      
n22   WL-CH-009  23/36  Windows-x64  35076  Intel(R) Xeon(R) W-2295      
n21   WL-CH-009  22/36  Windows-x64  22028  Intel(R) Xeon(R) W-2295      
n20   WL-CH-009  21/36  Windows-x64  21468  Intel(R) Xeon(R) W-2295      
n19   WL-CH-009  20/36  Windows-x64  41264  Intel(R) Xeon(R) W-2295      
n18   WL-CH-009  19/36  Windows-x64  43180  Intel(R) Xeon(R) W-2295      
n17   WL-CH-009  18/36  Windows-x64  16040  Intel(R) Xeon(R) W-2295      
n16   WL-CH-009  17/36  Windows-x64  42056  Intel(R) Xeon(R) W-2295      
n15   WL-CH-009  16/36  Windows-x64  22252  Intel(R) Xeon(R) W-2295      
n14   WL-CH-009  15/36  Windows-x64  22192  Intel(R) Xeon(R) W-2295      
n13   WL-CH-009  14/36  Windows-x64  16812  Intel(R) Xeon(R) W-2295      
n12   WL-CH-009  13/36  Windows-x64  12540  Intel(R) Xeon(R) W-2295      
-------------------------------------------------------------------------------
ID    Hostname   Core   O.S.         PID    Vendor                       
-------------------------------------------------------------------------------
n11   WL-CH-009  12/36  Windows-x64  44148  Intel(R) Xeon(R) W-2295      
n10   WL-CH-009  11/36  Windows-x64  35168  Intel(R) Xeon(R) W-2295      
n9    WL-CH-009  10/36  Windows-x64  37272  Intel(R) Xeon(R) W-2295      
n8    WL-CH-009  9/36   Windows-x64  36252  Intel(R) Xeon(R) W-2295      
n7    WL-CH-009  8/36   Windows-x64  44592  Intel(R) Xeon(R) W-2295      
n6    WL-CH-009  7/36   Windows-x64  17216  Intel(R) Xeon(R) W-2295      
n5    WL-CH-009  6/36   Windows-x64  41048  Intel(R) Xeon(R) W-2295      
n4    WL-CH-009  5/36   Windows-x64  28804  Intel(R) Xeon(R) W-2295      
n3    WL-CH-009  4/36   Windows-x64  37624  Intel(R) Xeon(R) W-2295      
n2    WL-CH-009  3/36   Windows-x64  23108  Intel(R) Xeon(R) W-2295      
n1    WL-CH-009  2/36   Windows-x64  11784  Intel(R) Xeon(R) W-2295      
n0*   WL-CH-009  1/36   Windows-x64  40636  Intel(R) Xeon(R) W-2295      
host  WL-CH-009         Windows-x64  45504  Intel(R) Xeon(R) W-2295      

MPI Option Selected: intel
Selected system interconnect: default
-------------------------------------------------------------------------------

Cleanup script file is E:\\MATLAB\\RANS_optimisation\\cleanup-fluent-WL-CH-009-45504.bat

Posting ANSYS Product Improvement Program startup data
Done.

Reading journal file E:\MATLAB\RANS_optimisation\run18\fluent_input.jou...

> /sync-chdir E:\MATLAB\RANS_optimisation\run18

> /file/read-case "grid.msh"
Reading "grid.msh"...

Buffering for file scan...

  112722 quadrilateral cells, zone  9.
  224998 2D interior faces, zone  2.
Warning: Reversing 238 faces, zone  2.
     237 2D pressure-inlet faces, zone  3.
Warning: Reversing 237 faces, zone  3.
     477 2D pressure-outlet faces, zone  4.
Warning: Reversing 477 faces, zone  4.
     477 2D pressure-outlet faces, zone  5.
     207 2D pressure-outlet faces, zone  6.
     254 2D wall faces, zone  7.
Warning: Reversing 15 faces, zone  7.
     252 2D wall faces, zone  8.
Warning: Reversing 223 faces, zone  8.
  113674 nodes.

Building...
     mesh
	auto partitioning mesh by Metis (fast),
	distributing mesh
		parts................................,
		faces................................,
		nodes................................,
		cells................................,
        bandwidth reduction using Reverse Cuthill-McKee: 2716/83 = 32.7229
     materials,
     interface,
     domains,
     zones,
	fluid-9
	wall-8
	wall-7
	pressure-outlet-6
	pressure-outlet-5
	pressure-outlet-4
	pressure-inlet-3
	interior-2
     parallel,
Done.

Preparing mesh for display...
Done.
 

> /define/boundary-conditions/modify-zones/zone-name 3 inlet 

> /define/boundary-conditions/modify-zones/zone-name 4 upper 

> /define/boundary-conditions/modify-zones/zone-name 5 lower 

> /define/boundary-conditions/modify-zones/zone-name 6 outlet

> /define/boundary-conditions/modify-zones/zone-name 7 upper-blade

> /define/boundary-conditions/modify-zones/zone-name 8 lower-blade

> /define/materials/change-create air air air is a fluid
yes 
Density
ideal-gas no data required.

yes 
Cp (Specific Heat)
constant 1005 
yes 
Thermal Conductivity
expression "DynamicViscosity*1005 [J/(kg K)]/0.72"
 yes 
Viscosity
sutherland three-coefficient-method 5.83247e-04 273 110.4 
no no no

Note: Enabling energy equation as required by material density method.

> /define/operating-conditions/operating-pressure 0

> /define/models/viscous/kw-sst? yes

> /define/boundary-conditions/zone-type inlet pressure-inlet 

> /define/boundary-conditions/pressure-inlet (inlet)
inlet yes no 74575.2 no 46984 no 300 no yes no no yes 0.5 1

> /define/boundary-conditions/zone-type outlet pressure-outlet 

> /define/boundary-conditions/bc-settings/pressure-outlet 0. 65 

> /define/boundary-conditions/pressure-outlet (outlet upper lower)
outlet yes no 46984 no 300 no yes no no yes 0.5 1 yes no no

> /define/boundary-conditions/copy-bc outlet (upper lower)Copy outlet boundary conditions to lower
Copy outlet boundary conditions to upper


> /define/boundary-conditions/wall (upper-blade lower-blade)
upper-blade 0 no 0 no no no 0 no no no no 0 no 0.5 no 1

> /define/boundary-conditions/copy-bc upper-blade (lower-blade)Copy upper-blade boundary conditions to lower-blade


> /define/models/solver/densit-based-implicit yes

> /file/read-data E:\MATLAB\RANS_optimisation\clean.dat

Reading "E:\MATLAB\RANS_optimisation\clean.dat"...



Parallel variables...
Done.

> ;/solve/initialize/initialize-flow
;/solve/initialize/compute-defaults/pressure-inlet inlet
;/solve/initialize/initialize-flow yes
;/solve/initialize/hyb-initialization
/solve/iterate 2000

  iter  continuity  x-velocity  y-velocity      energy           k       omega     time/iter
  2419  9.9521e-04  3.5719e-04  6.8654e-05  9.7828e-04  1.7105e-04  4.2984e-05  0:00:00 2000
  2420  8.9925e-02  5.9765e-02  5.4583e-02  8.9930e-02  4.0021e-03  1.1428e-02  0:00:00 1999
  2421  7.5106e-02  4.5190e-02  5.2363e-02  7.5470e-02  3.8219e-03  9.4989e-03  0:00:00 1998
  2422  5.8443e-02  3.1860e-02  5.0027e-02  5.8602e-02  3.6468e-03  7.5372e-03  0:00:00 1997
  2423  4.4917e-02  2.4148e-02  4.3356e-02  4.4589e-02  3.4704e-03  6.1446e-03  0:00:00 1996
  2424  3.5486e-02  2.0261e-02  3.5235e-02  3.4895e-02  3.2921e-03  5.7074e-03  0:00:00 1995
  2425  2.9299e-02  1.8094e-02  2.7709e-02  2.8757e-02  3.1133e-03  5.3406e-03  0:00:00 1994
  2426  2.5438e-02  1.6545e-02  2.1695e-02  2.5084e-02  2.9383e-03  4.8641e-03  0:00:00 1993
  2427  2.3174e-02  1.5229e-02  1.7301e-02  2.3004e-02  2.7658e-03  4.3402e-03  0:00:00 1992
  2428  2.1756e-02  1.3982e-02  1.4315e-02  2.1718e-02  2.6037e-03  3.8921e-03  0:33:11 1991
  2429  2.0619e-02  1.2740e-02  1.2424e-02  2.0661e-02  2.4549e-03  3.4230e-03  0:26:32 1990

  iter  continuity  x-velocity  y-velocity      energy           k       omega     time/iter
  2430  1.9505e-02  1.1490e-02  1.1272e-02  1.9586e-02  2.3198e-03  2.9782e-03  0:21:13 1989
  2431  1.8327e-02  1.0247e-02  1.0524e-02  1.8414e-02  2.2010e-03  2.6194e-03  0:16:58 1988
  2432  1.7100e-02  9.0514e-03  9.9608e-03  1.7169e-02  2.0982e-03  2.3946e-03  0:13:34 1987
  2433  1.5891e-02  7.9482e-03  9.4599e-03  1.5925e-02  2.0080e-03  2.2346e-03  0:10:51 1986
  2434  1.4754e-02  6.9937e-03  8.9685e-03  1.4743e-02  1.9272e-03  2.1210e-03  0:08:40 1985
  2435  1.3725e-02  6.2167e-03  8.4578e-03  1.3662e-02  1.8549e-03  2.0500e-03  0:06:56 1984
  2436  1.2825e-02  5.6674e-03  7.9488e-03  1.2708e-02  1.7901e-03  2.0248e-03  0:05:33 1983
  2437  1.2052e-02  5.3647e-03  7.4406e-03  1.1883e-02  1.7315e-03  2.0125e-03  0:11:02 1982
  2438  1.1407e-02  5.2888e-03  6.9516e-03  1.1190e-02  1.6788e-03  2.0045e-03  0:08:50 1981
  2439  1.0892e-02  5.3810e-03  6.5034e-03  1.0634e-02  1.6316e-03  2.0096e-03  0:07:04 1980
  2440  1.0503e-02  5.5743e-03  6.1015e-03  1.0209e-02  1.5888e-03  2.0129e-03  0:05:39 1979

  iter  continuity  x-velocity  y-velocity      energy           k       omega     time/iter
  2441  1.0237e-02  5.7871e-03  5.7562e-03  9.9122e-03  1.5498e-03  2.0082e-03  0:04:31 1978
  2442  1.0116e-02  5.9847e-03  5.4811e-03  9.7652e-03  1.5151e-03  1.9995e-03  0:03:37 1977
  2443  1.0166e-02  6.1397e-03  5.2671e-03  9.7941e-03  1.4830e-03  1.9929e-03  0:02:53 1976
  2444  1.0412e-02  6.2441e-03  5.1092e-03  1.0024e-02  1.4540e-03  1.9840e-03  0:02:18 1975
  2445  1.0862e-02  6.2921e-03  4.9969e-03  1.0463e-02  1.4283e-03  1.9770e-03  0:01:51 1974
  2446  1.1508e-02  6.2911e-03  4.9213e-03  1.1102e-02  1.4060e-03  1.9641e-03  0:01:29 1973
  2447  1.2320e-02  6.2503e-03  4.8711e-03  1.1910e-02  1.3864e-03  1.9363e-03  0:07:45 1972
  2448  1.3270e-02  6.1794e-03  4.8274e-03  1.2860e-02  1.3707e-03  1.9017e-03  0:06:12 1971
  2449  1.4339e-02  6.0941e-03  4.7670e-03  1.3931e-02  1.3575e-03  1.8672e-03  0:04:57 1970
  2450  1.5492e-02  6.0044e-03  4.6796e-03  1.5089e-02  1.3476e-03  1.8284e-03  0:03:58 1969
  2451  1.6677e-02  5.9220e-03  4.5774e-03  1.6280e-02  1.3409e-03  1.7920e-03  0:03:10 1968

  iter  continuity  x-velocity  y-velocity      energy           k       omega     time/iter
  2452  1.7827e-02  5.8576e-03  4.4479e-03  1.7436e-02  1.3353e-03  1.7604e-03  0:02:32 1967
  2453  1.8886e-02  5.8123e-03  4.3025e-03  1.8502e-02  1.3315e-03  1.7327e-03  0:02:02 1966
  2454  1.9826e-02  5.7907e-03  4.1372e-03  1.9452e-02  1.3285e-03  1.7106e-03  0:08:10 1965
  2455  2.0671e-02  5.7942e-03  3.9585e-03  2.0308e-02  1.3262e-03  1.6960e-03  0:06:32 1964
  2456  2.1396e-02  5.8169e-03  3.7721e-03  2.1046e-02  1.3247e-03  1.6886e-03  0:05:13 1963
  2457  2.1996e-02  5.8469e-03  3.5793e-03  2.1659e-02  1.3239e-03  1.6799e-03  0:04:11 1962
  2458  2.2442e-02  5.8808e-03  3.3998e-03  2.2119e-02  1.3242e-03  1.6780e-03  0:03:20 1961
  2459  2.2711e-02  5.9270e-03  3.2370e-03  2.2403e-02  1.3256e-03  1.6824e-03  0:02:40 1960
  2460  2.2793e-02  5.9786e-03  3.1004e-03  2.2500e-02  1.3276e-03  1.6877e-03  0:02:08 1959
  2461  2.2707e-02  6.0273e-03  2.9944e-03  2.2428e-02  1.3312e-03  1.6961e-03  0:01:42 1958
  2462  2.2475e-02  6.0653e-03  2.9254e-03  2.2211e-02  1.3351e-03  1.7033e-03  0:01:22 1957

  iter  continuity  x-velocity  y-velocity      energy           k       omega     time/iter
  2463  2.2134e-02  6.0893e-03  2.8838e-03  2.1885e-02  1.3409e-03  1.7136e-03  0:01:05 1956
  2464  2.1709e-02  6.0976e-03  2.8644e-03  2.1475e-02  1.3469e-03  1.7256e-03  0:00:52 1955
  2465  2.1206e-02  6.0851e-03  2.8537e-03  2.0986e-02  1.3549e-03  1.7348e-03  0:07:13 1954
  2466  2.0619e-02  6.0462e-03  2.8488e-03  2.0412e-02  1.3641e-03  1.7480e-03  0:05:46 1953
  2467  1.9956e-02  5.9971e-03  2.8409e-03  1.9760e-02  1.3753e-03  1.7555e-03  0:04:37 1952
  2468  1.9224e-02  5.9369e-03  2.8539e-03  1.9036e-02  1.3866e-03  1.7550e-03  0:03:41 1951
  2469  1.8442e-02  5.8632e-03  2.8700e-03  1.8260e-02  1.3978e-03  1.7560e-03  0:02:57 1950
  2470  1.7631e-02  5.7753e-03  2.8798e-03  1.7453e-02  1.4077e-03  1.7514e-03  0:02:21 1949
  2471  1.6799e-02  5.6791e-03  2.8847e-03  1.6626e-02  1.4171e-03  1.7429e-03  0:01:53 1948
  2472  1.5964e-02  5.5748e-03  2.8820e-03  1.5794e-02  1.4252e-03  1.7387e-03  0:01:30 1947
  2473  1.5131e-02  5.4678e-03  2.8772e-03  1.4962e-02  1.4325e-03  1.7254e-03  0:01:12 1946

  iter  continuity  x-velocity  y-velocity      energy           k       omega     time/iter
  2474  1.4296e-02  5.3534e-03  2.8728e-03  1.4126e-02  1.4374e-03  1.7108e-03  0:00:58 1945
  2475  1.3474e-02  5.2379e-03  2.8688e-03  1.3302e-02  1.4418e-03  1.6980e-03  0:07:15 1944
  2476  1.2682e-02  5.1163e-03  2.8600e-03  1.2508e-02  1.4480e-03  1.6891e-03  0:05:48 1943
  2477  1.1934e-02  4.9952e-03  2.8464e-03  1.1755e-02  1.4548e-03  1.6724e-03  0:04:38 1942
  2478  1.1247e-02  4.8735e-03  2.8269e-03  1.1066e-02  1.4589e-03  1.6521e-03  0:03:42 1941
  2479  1.0625e-02  4.7519e-03  2.8062e-03  1.0441e-02  1.4617e-03  1.6262e-03  0:02:58 1940
  2480  1.0082e-02  4.6339e-03  2.7860e-03  9.8981e-03  1.4631e-03  1.6060e-03  0:02:22 1939
  2481  9.6092e-03  4.5234e-03  2.7596e-03  9.4249e-03  1.4659e-03  1.5859e-03  0:01:54 1938
  2482  9.1984e-03  4.4199e-03  2.7355e-03  9.0150e-03  1.4707e-03  1.5700e-03  0:01:31 1937
  2483  8.8459e-03  4.3170e-03  2.7091e-03  8.6633e-03  1.4761e-03  1.5532e-03  0:01:13 1936
  2484  8.5690e-03  4.2109e-03  2.6871e-03  8.3889e-03  1.4822e-03  1.5349e-03  0:00:58 1935

  iter  continuity  x-velocity  y-velocity      energy           k       omega     time/iter
  2485  8.3666e-03  4.1083e-03  2.6517e-03  8.1909e-03  1.4874e-03  1.5197e-03  0:07:13 1934
  2486  8.2186e-03  4.0100e-03  2.6078e-03  8.0472e-03  1.4932e-03  1.5101e-03  0:05:46 1933
  2487  8.1312e-03  3.9253e-03  2.5657e-03  7.9653e-03  1.5002e-03  1.5047e-03  0:04:37 1932
  2488  8.0932e-03  3.8509e-03  2.5260e-03  7.9338e-03  1.5071e-03  1.4979e-03  0:03:41 1931
  2489  8.1014e-03  3.7789e-03  2.4847e-03  7.9492e-03  1.5148e-03  1.4902e-03  0:02:57 1930
  2490  8.1383e-03  3.7183e-03  2.4386e-03  7.9936e-03  1.5226e-03  1.4814e-03  0:02:22 1929
  2491  8.1821e-03  3.6601e-03  2.3852e-03  8.0426e-03  1.5311e-03  1.4711e-03  0:01:53 1928
  2492  8.2456e-03  3.6003e-03  2.3332e-03  8.1116e-03  1.5400e-03  1.4592e-03  0:01:31 1927
  2493  8.3182e-03  3.5472e-03  2.2796e-03  8.1890e-03  1.5481e-03  1.4498e-03  0:01:12 1926
  2494  8.3982e-03  3.5002e-03  2.2257e-03  8.2734e-03  1.5558e-03  1.4395e-03  0:00:58 1925
  2495  8.4907e-03  3.4582e-03  2.1649e-03  8.3708e-03  1.5642e-03  1.4273e-03  0:07:11 1924

  iter  continuity  x-velocity  y-velocity      energy           k       omega     time/iter
  2496  8.5882e-03  3.4239e-03  2.1067e-03  8.4722e-03  1.5717e-03  1.4167e-03  0:05:45 1923
  2497  8.6810e-03  3.3941e-03  2.0523e-03  8.5689e-03  1.5796e-03  1.4048e-03  0:04:36 1922
  2498  8.7675e-03  3.3691e-03  1.9931e-03  8.6592e-03  1.5878e-03  1.3932e-03  0:03:40 1921
  2499  8.8489e-03  3.3472e-03  1.9381e-03  8.7437e-03  1.5964e-03  1.3815e-03  0:02:56 1920
  2500  8.9219e-03  3.3303e-03  1.8905e-03  8.8195e-03  1.6053e-03  1.3690e-03  0:02:21 1919
  2501  8.9861e-03  3.3153e-03  1.8431e-03  8.8871e-03  1.6134e-03  1.3549e-03  0:01:53 1918
  2502  9.0397e-03  3.3055e-03  1.7925e-03  8.9445e-03  1.6220e-03  1.3402e-03  0:01:30 1917
  2503  9.0800e-03  3.2959e-03  1.7427e-03  8.9886e-03  1.6303e-03  1.3267e-03  0:01:12 1916
  2504  9.1040e-03  3.2860e-03  1.7056e-03  9.0162e-03  1.6385e-03  1.3127e-03  0:00:58 1915
  2505  9.1067e-03  3.2762e-03  1.6669e-03  9.0217e-03  1.6478e-03  1.2990e-03  0:07:09 1914
  2506  9.0969e-03  3.2702e-03  1.6329e-03  9.0149e-03  1.6567e-03  1.2855e-03  0:05:43 1913

  iter  continuity  x-velocity  y-velocity      energy           k       omega     time/iter
  2507  9.0781e-03  3.2661e-03  1.6067e-03  8.9993e-03  1.6656e-03  1.2740e-03  0:04:34 1912
  2508  9.0497e-03  3.2653e-03  1.5859e-03  8.9743e-03  1.6756e-03  1.2606e-03  0:03:39 1911
  2509  9.0065e-03  3.2650e-03  1.5707e-03  8.9345e-03  1.6853e-03  1.2475e-03  0:02:55 1910
  2510  8.9431e-03  3.2614e-03  1.5608e-03  8.8736e-03  1.6951e-03  1.2359e-03  0:02:20 1909
  2511  8.8710e-03  3.2595e-03  1.5522e-03  8.8040e-03  1.7060e-03  1.2254e-03  0:01:52 1908
  2512  8.7938e-03  3.2579e-03  1.5434e-03  8.7295e-03  1.7170e-03  1.2142e-03  0:07:51 1907
  2513  8.7168e-03  3.2552e-03  1.5384e-03  8.6554e-03  1.7275e-03  1.2026e-03  0:06:17 1906
  2514  8.6496e-03  3.2563e-03  1.5373e-03  8.5919e-03  1.7385e-03  1.1923e-03  0:05:01 1905
  2515  8.5655e-03  3.2530e-03  1.5387e-03  8.5103e-03  1.7502e-03  1.1829e-03  0:04:01 1904
  2516  8.4624e-03  3.2476e-03  1.5446e-03  8.4081e-03  1.7612e-03  1.1732e-03  0:03:13 1903
  2517  8.3674e-03  3.2417e-03  1.5540e-03  8.3141e-03  1.7733e-03  1.1627e-03  0:02:34 1902

  iter  continuity  x-velocity  y-velocity      energy           k       omega     time/iter
  2518  8.2774e-03  3.2365e-03  1.5612e-03  8.2251e-03  1.7854e-03  1.1516e-03  0:02:03 1901
  2519  8.1939e-03  3.2321e-03  1.5685e-03  8.1427e-03  1.7963e-03  1.1423e-03  0:01:38 1900
  2520  8.1282e-03  3.2296e-03  1.5748e-03  8.0781e-03  1.8072e-03  1.1319e-03  0:01:19 1899
  2521  8.0559e-03  3.2219e-03  1.5825e-03  8.0059e-03  1.8183e-03  1.1215e-03  0:07:23 1898
  2522  7.9840e-03  3.2132e-03  1.5910e-03  7.9336e-03  1.8290e-03  1.1116e-03  0:05:54 1897
  2523  7.9119e-03  3.2028e-03  1.5970e-03  7.8608e-03  1.8386e-03  1.1021e-03  0:04:43 1896
  2524  7.8365e-03  3.1891e-03  1.6044e-03  7.7842e-03  1.8481e-03  1.0923e-03  0:03:46 1895
  2525  7.7703e-03  3.1712e-03  1.6100e-03  7.7166e-03  1.8564e-03  1.0825e-03  0:03:01 1894
  2526  7.7212e-03  3.1508e-03  1.6078e-03  7.6662e-03  1.8639e-03  1.0740e-03  0:02:25 1893
  2527  7.6724e-03  3.1279e-03  1.6103e-03  7.6159e-03  1.8717e-03  1.0653e-03  0:01:56 1892
  2528  7.6315e-03  3.1033e-03  1.6113e-03  7.5733e-03  1.8791e-03  1.0566e-03  0:01:32 1891

  iter  continuity  x-velocity  y-velocity      energy           k       omega     time/iter
  2529  7.5981e-03  3.0777e-03  1.6109e-03  7.5380e-03  1.8852e-03  1.0494e-03  0:01:14 1890
  2530  7.5631e-03  3.0485e-03  1.6051e-03  7.5008e-03  1.8921e-03  1.0418e-03  0:00:59 1889
  2531  7.5298e-03  3.0170e-03  1.5989e-03  7.4651e-03  1.8986e-03  1.0341e-03  0:07:05 1888
  2532  7.4992e-03  2.9833e-03  1.5927e-03  7.4321e-03  1.9038e-03  1.0279e-03  0:05:40 1887
  2533  7.4724e-03  2.9467e-03  1.5815e-03  7.4030e-03  1.9086e-03  1.0208e-03  0:04:32 1886
  2534  7.4467e-03  2.9069e-03  1.5685e-03  7.3750e-03  1.9134e-03  1.0135e-03  0:03:37 1885
  2535  7.4244e-03  2.8639e-03  1.5567e-03  7.3503e-03  1.9177e-03  1.0050e-03  0:02:54 1884
  2536  7.4083e-03  2.8192e-03  1.5396e-03  7.3318e-03  1.9217e-03  9.9602e-04  0:02:19 1883
  2537  7.3935e-03  2.7742e-03  1.5221e-03  7.3149e-03  1.9254e-03  9.8664e-04  0:01:51 1882
  2538  7.3791e-03  2.7279e-03  1.5033e-03  7.2987e-03  1.9287e-03  9.7796e-04  0:01:29 1881
  2539  7.3661e-03  2.6808e-03  1.4828e-03  7.2840e-03  1.9319e-03  9.6930e-04  0:01:11 1880

  iter  continuity  x-velocity  y-velocity      energy           k       omega     time/iter
  2540  7.3575e-03  2.6344e-03  1.4582e-03  7.2739e-03  1.9355e-03  9.6072e-04  0:00:57 1879
  2541  7.3474e-03  2.5900e-03  1.4313e-03  7.2622e-03  1.9385e-03  9.5326e-04  0:07:01 1878
  2542  7.3370e-03  2.5505e-03  1.4030e-03  7.2506e-03  1.9413e-03  9.4648e-04  0:05:37 1877
  2543  7.3205e-03  2.5087e-03  1.3745e-03  7.2330e-03  1.9443e-03  9.3925e-04  0:04:29 1876
  2544  7.2968e-03  2.4646e-03  1.3462e-03  7.2085e-03  1.9471e-03  9.3242e-04  0:03:35 1875
  2545  7.2672e-03  2.4204e-03  1.3162e-03  7.1784e-03  1.9497e-03  9.2606e-04  0:02:52 1874
  2546  7.2334e-03  2.3774e-03  1.2863e-03  7.1442e-03  1.9519e-03  9.1872e-04  0:02:18 1873
  2547  7.1898e-03  2.3366e-03  1.2572e-03  7.1004e-03  1.9540e-03  9.1078e-04  0:01:50 1872
  2548  7.1337e-03  2.2988e-03  1.2289e-03  7.0443e-03  1.9557e-03  9.0287e-04  0:01:28 1871
  2549  7.0675e-03  2.2633e-03  1.2017e-03  6.9783e-03  1.9568e-03  8.9430e-04  0:01:10 1870
  2550  6.9918e-03  2.2303e-03  1.1757e-03  6.9029e-03  1.9587e-03  8.8481e-04  0:00:56 1869

  iter  continuity  x-velocity  y-velocity      energy           k       omega     time/iter
  2551  6.9081e-03  2.2001e-03  1.1511e-03  6.8197e-03  1.9607e-03  8.7544e-04  0:06:59 1868
  2552  6.8142e-03  2.1720e-03  1.1291e-03  6.7266e-03  1.9620e-03  8.6663e-04  0:05:35 1867
  2553  6.7107e-03  2.1459e-03  1.1103e-03  6.6239e-03  1.9630e-03  8.5754e-04  0:04:28 1866
  2554  6.5988e-03  2.1214e-03  1.0946e-03  6.5129e-03  1.9633e-03  8.4812e-04  0:03:34 1865
  2555  6.4833e-03  2.0974e-03  1.0817e-03  6.3984e-03  1.9625e-03  8.3983e-04  0:02:51 1864
  2556  6.3665e-03  2.0750e-03  1.0721e-03  6.2828e-03  1.9610e-03  8.3192e-04  0:02:17 1863
  2557  6.2477e-03  2.0537e-03  1.0655e-03  6.1653e-03  1.9584e-03  8.2305e-04  0:01:49 1862
  2558  6.1341e-03  2.0336e-03  1.0625e-03  6.0531e-03  1.9549e-03  8.1346e-04  0:01:27 1861
  2559  6.0275e-03  2.0148e-03  1.0627e-03  5.9480e-03  1.9501e-03  8.0431e-04  0:01:10 1860
  2560  5.9281e-03  1.9974e-03  1.0657e-03  5.8501e-03  1.9439e-03  7.9506e-04  0:00:56 1859
  2561  5.8513e-03  1.9814e-03  1.0711e-03  5.7750e-03  1.9360e-03  7.8554e-04  0:00:45 1858

  iter  continuity  x-velocity  y-velocity      energy           k       omega     time/iter
  2562  5.7981e-03  1.9653e-03  1.0771e-03  5.7237e-03  1.9266e-03  7.7592e-04  0:06:47 1857
  2563  5.7529e-03  1.9489e-03  1.0852e-03  5.6802e-03  1.9158e-03  7.6652e-04  0:05:26 1856
  2564  5.7273e-03  1.9320e-03  1.0952e-03  5.6563e-03  1.9038e-03  7.5713e-04  0:04:20 1855
  2565  5.7258e-03  1.9154e-03  1.1062e-03  5.6565e-03  1.8900e-03  7.4885e-04  0:03:28 1854
  2566  5.7473e-03  1.8994e-03  1.1174e-03  5.6796e-03  1.8745e-03  7.4047e-04  0:02:46 1853
  2567  5.7930e-03  1.8839e-03  1.1287e-03  5.7267e-03  1.8582e-03  7.3189e-04  0:02:13 1852
  2568  5.8648e-03  1.8687e-03  1.1400e-03  5.7998e-03  1.8409e-03  7.2408e-04  0:07:57 1851
  2569  5.9581e-03  1.8547e-03  1.1510e-03  5.8941e-03  1.8230e-03  7.1598e-04  0:06:21 1850
  2570  6.0705e-03  1.8394e-03  1.1617e-03  6.0073e-03  1.8050e-03  7.0893e-04  0:05:05 1849
  2571  6.1977e-03  1.8228e-03  1.1720e-03  6.1349e-03  1.7875e-03  7.0202e-04  0:04:04 1848
  2572  6.3347e-03  1.8057e-03  1.1819e-03  6.2721e-03  1.7709e-03  6.9515e-04  0:03:15 1847

  iter  continuity  x-velocity  y-velocity      energy           k       omega     time/iter
  2573  6.4793e-03  1.7891e-03  1.1908e-03  6.4164e-03  1.7552e-03  6.8833e-04  0:02:36 1846
  2574  6.6250e-03  1.7724e-03  1.1984e-03  6.5617e-03  1.7391e-03  6.8205e-04  0:02:05 1845
  2575  6.7693e-03  1.7548e-03  1.2051e-03  6.7053e-03  1.7229e-03  6.7576e-04  0:01:40 1844
  2576  6.9081e-03  1.7376e-03  1.2107e-03  6.8432e-03  1.7076e-03  6.6908e-04  0:01:20 1843
  2577  7.0418e-03  1.7197e-03  1.2152e-03  6.9758e-03  1.6926e-03  6.6284e-04  0:01:04 1842
  2578  7.1660e-03  1.7014e-03  1.2187e-03  7.0988e-03  1.6787e-03  6.5739e-04  0:06:59 1841
  2579  7.2779e-03  1.6831e-03  1.2209e-03  7.2094e-03  1.6656e-03  6.5206e-04  0:05:35 1840
  2580  7.3706e-03  1.6646e-03  1.2219e-03  7.3008e-03  1.6529e-03  6.4677e-04  0:04:28 1839
  2581  7.4442e-03  1.6478e-03  1.2214e-03  7.3730e-03  1.6407e-03  6.4138e-04  0:03:34 1838
  2582  7.4995e-03  1.6305e-03  1.2194e-03  7.4270e-03  1.6295e-03  6.3651e-04  0:02:51 1837
  2583  7.5362e-03  1.6121e-03  1.2161e-03  7.4624e-03  1.6198e-03  6.3075e-04  0:02:17 1836

  iter  continuity  x-velocity  y-velocity      energy           k       omega     time/iter
  2584  7.5529e-03  1.5923e-03  1.2110e-03  7.4779e-03  1.6113e-03  6.2454e-04  0:01:50 1835
  2585  7.5515e-03  1.5725e-03  1.2034e-03  7.4755e-03  1.6035e-03  6.1928e-04  0:01:28 1834
  2586  7.5329e-03  1.5542e-03  1.1945e-03  7.4559e-03  1.5962e-03  6.1429e-04  0:01:10 1833
  2587  7.4979e-03  1.5334e-03  1.1854e-03  7.4201e-03  1.5900e-03  6.0827e-04  0:00:56 1832
  2588  7.4457e-03  1.5118e-03  1.1756e-03  7.3672e-03  1.5852e-03  6.0202e-04  0:06:51 1831
  2589  7.3765e-03  1.4896e-03  1.1647e-03  7.2975e-03  1.5806e-03  5.9710e-04  0:05:29 1830
  2590  7.2923e-03  1.4691e-03  1.1521e-03  7.2130e-03  1.5760e-03  5.9197e-04  0:04:23 1829
  2591  7.1946e-03  1.4489e-03  1.1385e-03  7.1151e-03  1.5719e-03  5.8647e-04  0:03:30 1828
  2592  7.0847e-03  1.4312e-03  1.1239e-03  7.0052e-03  1.5686e-03  5.8154e-04  0:02:48 1827
  2593  6.9639e-03  1.4149e-03  1.1086e-03  6.8846e-03  1.5665e-03  5.7696e-04  0:02:14 1826
  2594  6.8345e-03  1.3945e-03  1.0928e-03  6.7556e-03  1.5652e-03  5.7234e-04  0:01:47 1825

  iter  continuity  x-velocity  y-velocity      energy           k       omega     time/iter
  2595  6.6993e-03  1.3736e-03  1.0766e-03  6.6209e-03  1.5641e-03  5.6783e-04  0:01:26 1824
  2596  6.5594e-03  1.3537e-03  1.0596e-03  6.4816e-03  1.5640e-03  5.6377e-04  0:01:09 1823
  2597  6.4189e-03  1.3351e-03  1.0423e-03  6.3420e-03  1.5642e-03  5.6009e-04  0:00:55 1822
  2598  6.2813e-03  1.3189e-03  1.0248e-03  6.2054e-03  1.5649e-03  5.5623e-04  0:06:48 1821
  2599  6.1479e-03  1.3039e-03  1.0077e-03  6.0731e-03  1.5658e-03  5.5156e-04  0:05:26 1820
  2600  6.0208e-03  1.2890e-03  9.9089e-04  5.9472e-03  1.5669e-03  5.4729e-04  0:04:21 1819
  2601  5.9020e-03  1.2746e-03  9.7440e-04  5.8298e-03  1.5678e-03  5.4307e-04  0:03:29 1818
  2602  5.7932e-03  1.2601e-03  9.5836e-04  5.7225e-03  1.5686e-03  5.3873e-04  0:02:47 1817
  2603  5.6969e-03  1.2449e-03  9.4262e-04  5.6278e-03  1.5694e-03  5.3391e-04  0:02:13 1816
  2604  5.6139e-03  1.2293e-03  9.2783e-04  5.5464e-03  1.5704e-03  5.2993e-04  0:01:47 1815
  2605  5.5441e-03  1.2140e-03  9.1393e-04  5.4783e-03  1.5708e-03  5.2550e-04  0:01:25 1814

  iter  continuity  x-velocity  y-velocity      energy           k       omega     time/iter
  2606  5.4874e-03  1.1979e-03  9.0076e-04  5.4233e-03  1.5710e-03  5.2094e-04  0:01:08 1813
  2607  5.4432e-03  1.1825e-03  8.8847e-04  5.3808e-03  1.5710e-03  5.1732e-04  0:00:55 1812
  2608  5.4102e-03  1.1675e-03  8.7715e-04  5.3497e-03  1.5712e-03  5.1322e-04  0:06:46 1811
  2609  5.3868e-03  1.1540e-03  8.6679e-04  5.3279e-03  1.5709e-03  5.0909e-04  0:05:24 1810
  2610  5.3694e-03  1.1407e-03  8.5733e-04  5.3122e-03  1.5700e-03  5.0505e-04  0:04:19 1809
  2611  5.3562e-03  1.1290e-03  8.4866e-04  5.3007e-03  1.5688e-03  5.0125e-04  0:03:27 1808
  2612  5.3454e-03  1.1167e-03  8.4080e-04  5.2915e-03  1.5674e-03  4.9783e-04  0:02:46 1807
  2613  5.3326e-03  1.1074e-03  8.3375e-04  5.2802e-03  1.5657e-03  4.9466e-04  0:02:13 1806
  2614  5.3158e-03  1.1000e-03  8.2755e-04  5.2649e-03  1.5631e-03  4.9161e-04  0:01:46 1805
  2615  5.2919e-03  1.0936e-03  8.2213e-04  5.2425e-03  1.5595e-03  4.8834e-04  0:01:25 1804
  2616  5.2588e-03  1.0867e-03  8.1731e-04  5.2107e-03  1.5552e-03  4.8531e-04  0:01:08 1803

  iter  continuity  x-velocity  y-velocity      energy           k       omega     time/iter
  2617  5.2155e-03  1.0772e-03  8.1324e-04  5.1687e-03  1.5501e-03  4.8214e-04  0:00:54 1802
  2618  5.1570e-03  1.0667e-03  8.0960e-04  5.1114e-03  1.5446e-03  4.7871e-04  0:06:44 1801
  2619  5.0890e-03  1.0584e-03  8.0670e-04  5.0444e-03  1.5382e-03  4.7545e-04  0:05:23 1800
  2620  5.0113e-03  1.0522e-03  8.0443e-04  4.9678e-03  1.5309e-03  4.7235e-04  0:04:18 1799
  2621  4.9219e-03  1.0482e-03  8.0272e-04  4.8791e-03  1.5231e-03  4.6940e-04  0:03:26 1798
  2622  4.8077e-03  1.0459e-03  8.0151e-04  4.7657e-03  1.5155e-03  4.6613e-04  0:02:45 1797
  2623  4.6762e-03  1.0449e-03  8.0062e-04  4.6349e-03  1.5072e-03  4.6317e-04  0:02:12 1796
  2624  4.5377e-03  1.0460e-03  7.9953e-04  4.4970e-03  1.4985e-03  4.6019e-04  0:01:45 1795
  2625  4.3942e-03  1.0466e-03  7.9816e-04  4.3539e-03  1.4897e-03  4.5747e-04  0:01:24 1794
  2626  4.2480e-03  1.0510e-03  7.9650e-04  4.2080e-03  1.4804e-03  4.5434e-04  0:07:06 1793
  2627  4.1028e-03  1.0573e-03  7.9444e-04  4.0629e-03  1.4708e-03  4.5106e-04  0:05:41 1792

  iter  continuity  x-velocity  y-velocity      energy           k       omega     time/iter
  2628  3.9636e-03  1.0544e-03  7.9226e-04  3.9235e-03  1.4607e-03  4.4811e-04  0:04:32 1791
  2629  3.8358e-03  1.0525e-03  7.8935e-04  3.7956e-03  1.4499e-03  4.4560e-04  0:03:38 1790
  2630  3.7245e-03  1.0478e-03  7.8580e-04  3.6839e-03  1.4387e-03  4.4288e-04  0:02:54 1789
  2631  3.6329e-03  1.0451e-03  7.8075e-04  3.5919e-03  1.4270e-03  4.4017e-04  0:02:19 1788
  2632  3.5659e-03  1.0412e-03  7.7452e-04  3.5245e-03  1.4150e-03  4.3718e-04  0:01:51 1787
  2633  3.5260e-03  1.0338e-03  7.6724e-04  3.4840e-03  1.4028e-03  4.3335e-04  0:01:29 1786
  2634  3.5144e-03  1.0272e-03  7.5867e-04  3.4721e-03  1.3903e-03  4.3085e-04  0:01:11 1785
  2635  3.5282e-03  1.0243e-03  7.4904e-04  3.4855e-03  1.3776e-03  4.2777e-04  0:00:57 1784
  2636  3.5611e-03  1.0252e-03  7.3834e-04  3.5182e-03  1.3649e-03  4.2423e-04  0:06:42 1783
  2637  3.6130e-03  1.0261e-03  7.2723e-04  3.5700e-03  1.3521e-03  4.2109e-04  0:05:21 1782
  2638  3.6877e-03  1.0285e-03  7.1560e-04  3.6445e-03  1.3396e-03  4.1821e-04  0:04:17 1781

  iter  continuity  x-velocity  y-velocity      energy           k       omega     time/iter
  2639  3.7769e-03  1.0318e-03  7.0346e-04  3.7336e-03  1.3271e-03  4.1538e-04  0:03:26 1780
  2640  3.8720e-03  1.0340e-03  6.9050e-04  3.8286e-03  1.3151e-03  4.1270e-04  0:02:44 1779
  2641  3.9675e-03  1.0354e-03  6.7757e-04  3.9239e-03  1.3036e-03  4.0972e-04  0:02:11 1778
  2642  4.0586e-03  1.0283e-03  6.6358e-04  4.0150e-03  1.2925e-03  4.0686e-04  0:01:45 1777
  2643  4.1417e-03  1.0216e-03  6.5001e-04  4.0978e-03  1.2817e-03  4.0445e-04  0:01:24 1776
  2644  4.2137e-03  1.0164e-03  6.3670e-04  4.1697e-03  1.2712e-03  4.0189e-04  0:01:07 1775
  2645  4.2730e-03  1.0135e-03  6.2376e-04  4.2288e-03  1.2609e-03  3.9943e-04  0:06:48 1774
  2646  4.3162e-03  1.0068e-03  6.1129e-04  4.2720e-03  1.2509e-03  3.9729e-04  0:05:27 1773
  2647  4.3428e-03  9.9742e-04  5.9911e-04  4.2985e-03  1.2410e-03  3.9554e-04  0:04:21 1772
  2648  4.3507e-03  9.8906e-04  5.8753e-04  4.3064e-03  1.2319e-03  3.9396e-04  0:03:29 1771
  2649  4.3378e-03  9.7700e-04  5.7634e-04  4.2935e-03  1.2232e-03  3.9235e-04  0:02:47 1770

  iter  continuity  x-velocity  y-velocity      energy           k       omega     time/iter
  2650  4.3032e-03  9.6533e-04  5.6590e-04  4.2590e-03  1.2155e-03  3.9086e-04  0:02:13 1769
  2651  4.2478e-03  9.5601e-04  5.5684e-04  4.2038e-03  1.2080e-03  3.8961e-04  0:01:47 1768
  2652  4.1723e-03  9.4900e-04  5.4782e-04  4.1285e-03  1.2007e-03  3.8840e-04  0:07:19 1767
  2653  4.0787e-03  9.4514e-04  5.3901e-04  4.0353e-03  1.1938e-03  3.8755e-04  0:05:51 1766
  2654  3.9682e-03  9.4497e-04  5.3127e-04  3.9252e-03  1.1869e-03  3.8687e-04  0:04:40 1765
  2655  3.8416e-03  9.4744e-04  5.2502e-04  3.7991e-03  1.1799e-03  3.8622e-04  0:03:44 1764
  2656  3.7012e-03  9.5037e-04  5.1887e-04  3.6592e-03  1.1727e-03  3.8544e-04  0:02:59 1763
  2657  3.5496e-03  9.5228e-04  5.1282e-04  3.5082e-03  1.1660e-03  3.8469e-04  0:02:23 1762
  2658  3.3905e-03  9.5105e-04  5.0714e-04  3.3497e-03  1.1587e-03  3.8393e-04  0:01:55 1761
  2659  3.2275e-03  9.4884e-04  5.0205e-04  3.1872e-03  1.1512e-03  3.8312e-04  0:01:32 1760
  2660  3.0652e-03  9.4465e-04  4.9760e-04  3.0255e-03  1.1434e-03  3.8242e-04  0:01:13 1759

  iter  continuity  x-velocity  y-velocity      energy           k       omega     time/iter
  2661  2.9079e-03  9.3823e-04  4.9358e-04  2.8687e-03  1.1359e-03  3.8170e-04  0:00:59 1758
  2662  2.7608e-03  9.3226e-04  4.8982e-04  2.7220e-03  1.1283e-03  3.8081e-04  0:06:38 1757
  2663  2.6294e-03  9.2628e-04  4.8591e-04  2.5910e-03  1.1214e-03  3.7940e-04  0:05:18 1756
  2664  2.5204e-03  9.2422e-04  4.8245e-04  2.4823e-03  1.1150e-03  3.7844e-04  0:04:15 1755
  2665  2.4392e-03  9.1960e-04  4.7886e-04  2.4015e-03  1.1088e-03  3.7769e-04  0:03:24 1754
  2666  2.3890e-03  9.1759e-04  4.7515e-04  2.3516e-03  1.1030e-03  3.7666e-04  0:02:43 1753
  2667  2.3717e-03  9.1235e-04  4.7154e-04  2.3347e-03  1.0975e-03  3.7540e-04  0:02:10 1752
  2668  2.3858e-03  9.0525e-04  4.6800e-04  2.3491e-03  1.0921e-03  3.7421e-04  0:01:44 1751
  2669  2.4289e-03  8.9568e-04  4.6483e-04  2.3924e-03  1.0869e-03  3.7316e-04  0:01:23 1750
  2670  2.4968e-03  8.8490e-04  4.6162e-04  2.4606e-03  1.0819e-03  3.7162e-04  0:01:07 1749
  2671  2.5856e-03  8.7456e-04  4.5806e-04  2.5496e-03  1.0771e-03  3.7047e-04  0:00:53 1748

  iter  continuity  x-velocity  y-velocity      energy           k       omega     time/iter
  2672  2.6889e-03  8.6503e-04  4.5432e-04  2.6530e-03  1.0726e-03  3.6930e-04  0:06:32 1747
  2673  2.8020e-03  8.5593e-04  4.5041e-04  2.7660e-03  1.0682e-03  3.6772e-04  0:05:13 1746
  2674  2.9194e-03  8.4853e-04  4.4600e-04  2.8834e-03  1.0639e-03  3.6602e-04  0:04:11 1745
  2675  3.0361e-03  8.4199e-04  4.4137e-04  3.0001e-03  1.0597e-03  3.6445e-04  0:03:20 1744
  2676  3.1484e-03  8.3998e-04  4.3685e-04  3.1123e-03  1.0553e-03  3.6292e-04  0:02:40 1743
  2677  3.2547e-03  8.4078e-04  4.3274e-04  3.2184e-03  1.0512e-03  3.6142e-04  0:02:08 1742
  2678  3.3520e-03  8.3681e-04  4.2905e-04  3.3156e-03  1.0473e-03  3.6008e-04  0:01:42 1741
  2679  3.4388e-03  8.2828e-04  4.2549e-04  3.4023e-03  1.0438e-03  3.5871e-04  0:01:22 1740
  2680  3.5146e-03  8.1805e-04  4.2201e-04  3.4779e-03  1.0407e-03  3.5744e-04  0:01:05 1739
  2681  3.5788e-03  8.0602e-04  4.1854e-04  3.5421e-03  1.0382e-03  3.5634e-04  0:00:52 1738
  2682  3.6313e-03  7.9570e-04  4.1491e-04  3.5945e-03  1.0362e-03  3.5552e-04  0:06:29 1737

  iter  continuity  x-velocity  y-velocity      energy           k       omega     time/iter
  2683  3.6718e-03  7.8774e-04  4.1093e-04  3.6351e-03  1.0349e-03  3.5466e-04  0:05:11 1736
  2684  3.7005e-03  7.7859e-04  4.0700e-04  3.6638e-03  1.0342e-03  3.5369e-04  0:04:09 1735
  2685  3.7178e-03  7.7116e-04  4.0280e-04  3.6812e-03  1.0338e-03  3.5245e-04  0:03:19 1734
  2686  3.7244e-03  7.6375e-04  3.9887e-04  3.6879e-03  1.0336e-03  3.5186e-04  0:02:39 1733
  2687  3.7217e-03  7.5682e-04  3.9498e-04  3.6853e-03  1.0335e-03  3.5104e-04  0:02:07 1732
  2688  3.7104e-03  7.4960e-04  3.9099e-04  3.6741e-03  1.0333e-03  3.4987e-04  0:01:42 1731
  2689  3.6919e-03  7.4320e-04  3.8692e-04  3.6556e-03  1.0333e-03  3.4866e-04  0:01:21 1730
  2690  3.6670e-03  7.3806e-04  3.8285e-04  3.6308e-03  1.0331e-03  3.4742e-04  0:01:05 1729
  2691  3.6369e-03  7.3396e-04  3.7867e-04  3.6007e-03  1.0329e-03  3.4605e-04  0:00:52 1728
  2692  3.6027e-03  7.3070e-04  3.7444e-04  3.5666e-03  1.0326e-03  3.4472e-04  0:06:27 1727
  2693  3.5657e-03  7.2767e-04  3.6994e-04  3.5296e-03  1.0318e-03  3.4325e-04  0:05:09 1726

  iter  continuity  x-velocity  y-velocity      energy           k       omega     time/iter
  2694  3.5271e-03  7.2390e-04  3.6522e-04  3.4910e-03  1.0307e-03  3.4147e-04  0:04:07 1725
  2695  3.4879e-03  7.2113e-04  3.6042e-04  3.4519e-03  1.0294e-03  3.3912e-04  0:03:18 1724
  2696  3.4489e-03  7.1859e-04  3.5557e-04  3.4128e-03  1.0279e-03  3.3719e-04  0:02:38 1723
  2697  3.4109e-03  7.1446e-04  3.5082e-04  3.3749e-03  1.0260e-03  3.3518e-04  0:02:06 1722
  2698  3.3747e-03  7.0984e-04  3.4607e-04  3.3387e-03  1.0235e-03  3.3293e-04  0:01:41 1721
  2699  3.3405e-03  7.0512e-04  3.4151e-04  3.3043e-03  1.0209e-03  3.3060e-04  0:01:21 1720
  2700  3.3089e-03  7.0305e-04  3.3709e-04  3.2726e-03  1.0186e-03  3.2818e-04  0:01:05 1719
  2701  3.2802e-03  7.0577e-04  3.3289e-04  3.2438e-03  1.0161e-03  3.2558e-04  0:00:52 1718
  2702  3.2549e-03  7.1325e-04  3.2903e-04  3.2183e-03  1.0135e-03  3.2288e-04  0:06:25 1717
  2703  3.2324e-03  7.1520e-04  3.2517e-04  3.1957e-03  1.0108e-03  3.2008e-04  0:05:08 1716
  2704  3.2122e-03  7.1195e-04  3.2141e-04  3.1754e-03  1.0080e-03  3.1720e-04  0:04:06 1715

  iter  continuity  x-velocity  y-velocity      energy           k       omega     time/iter
  2705  3.1941e-03  7.0674e-04  3.1786e-04  3.1573e-03  1.0051e-03  3.1474e-04  0:03:17 1714
  2706  3.1783e-03  6.9977e-04  3.1446e-04  3.1413e-03  1.0023e-03  3.1188e-04  0:02:37 1713
  2707  3.1640e-03  6.8831e-04  3.1137e-04  3.1270e-03  9.9920e-04  3.0904e-04  0:02:06 1712
  2708  3.1514e-03  6.7771e-04  3.0900e-04  3.1142e-03  9.9605e-04  3.0622e-04  0:01:40 1711
  2709  3.1396e-03  6.6705e-04  3.0711e-04  3.1025e-03  9.9292e-04  3.0336e-04  0:01:20 1710
  2710  3.1285e-03  6.5607e-04  3.0548e-04  3.0913e-03  9.8964e-04  3.0067e-04  0:01:04 1709
  2711  3.1173e-03  6.4829e-04  3.0370e-04  3.0800e-03  9.8629e-04  2.9783e-04  0:00:51 1708
  2712  3.1055e-03  6.4128e-04  3.0161e-04  3.0681e-03  9.8309e-04  2.9487e-04  0:06:22 1707
  2713  3.0928e-03  6.3687e-04  2.9983e-04  3.0553e-03  9.8000e-04  2.9183e-04  0:05:06 1706
  2714  3.0787e-03  6.3500e-04  2.9835e-04  3.0411e-03  9.7675e-04  2.8857e-04  0:04:04 1705
  2715  3.0627e-03  6.3876e-04  2.9751e-04  3.0250e-03  9.7317e-04  2.8543e-04  0:03:15 1704

  iter  continuity  x-velocity  y-velocity      energy           k       omega     time/iter
  2716  3.0439e-03  6.4042e-04  2.9712e-04  3.0060e-03  9.6930e-04  2.8251e-04  0:02:36 1703
  2717  3.0222e-03  6.4522e-04  2.9675e-04  2.9842e-03  9.6508e-04  2.7953e-04  0:02:05 1702
  2718  2.9973e-03  6.5379e-04  2.9670e-04  2.9591e-03  9.6064e-04  2.7656e-04  0:01:40 1701
  2719  2.9688e-03  6.6449e-04  2.9707e-04  2.9305e-03  9.5589e-04  2.7372e-04  0:01:20 1700
  2720  2.9361e-03  6.7439e-04  2.9733e-04  2.8976e-03  9.5085e-04  2.7095e-04  0:01:04 1699
  2721  2.8986e-03  6.7337e-04  2.9782e-04  2.8599e-03  9.4564e-04  2.6831e-04  0:00:51 1698
  2722  2.8572e-03  6.6860e-04  2.9863e-04  2.8185e-03  9.4034e-04  2.6595e-04  0:06:20 1697
  2723  2.8127e-03  6.6653e-04  2.9980e-04  2.7737e-03  9.3501e-04  2.6363e-04  0:05:04 1696
  2724  2.7649e-03  6.6328e-04  3.0119e-04  2.7257e-03  9.2973e-04  2.6146e-04  0:04:03 1695
  2725  2.7145e-03  6.6348e-04  3.0282e-04  2.6751e-03  9.2444e-04  2.5946e-04  0:03:14 1694
  2726  2.6620e-03  6.6631e-04  3.0446e-04  2.6222e-03  9.1907e-04  2.5776e-04  0:02:35 1693

  iter  continuity  x-velocity  y-velocity      energy           k       omega     time/iter
  2727  2.6075e-03  6.6949e-04  3.0613e-04  2.5674e-03  9.1376e-04  2.5630e-04  0:02:04 1692
  2728  2.5522e-03  6.7424e-04  3.0773e-04  2.5117e-03  9.0855e-04  2.5488e-04  0:01:39 1691
  2729  2.4968e-03  6.7777e-04  3.0911e-04  2.4559e-03  9.0354e-04  2.5358e-04  0:01:19 1690
  2730  2.4423e-03  6.8212e-04  3.1046e-04  2.4010e-03  8.9866e-04  2.5235e-04  0:01:03 1689
  2731  2.3898e-03  6.8904e-04  3.1180e-04  2.3481e-03  8.9394e-04  2.5149e-04  0:00:51 1688
  2732  2.3402e-03  6.9796e-04  3.1306e-04  2.2982e-03  8.8931e-04  2.5078e-04  0:06:18 1687
  2733  2.2946e-03  7.1023e-04  3.1439e-04  2.2521e-03  8.8465e-04  2.5017e-04  0:05:02 1686
  2734  2.2534e-03  7.2215e-04  3.1550e-04  2.2106e-03  8.7983e-04  2.4996e-04  0:04:02 1685
  2735  2.2167e-03  7.2342e-04  3.1714e-04  2.1735e-03  8.7525e-04  2.5008e-04  0:03:13 1684
  2736  2.1868e-03  7.2591e-04  3.1955e-04  2.1431e-03  8.7055e-04  2.5024e-04  0:02:34 1683
  2737  2.1632e-03  7.2840e-04  3.2003e-04  2.1191e-03  8.6560e-04  2.5070e-04  0:02:03 1682

  iter  continuity  x-velocity  y-velocity      energy           k       omega     time/iter
  2738  2.1461e-03  7.3532e-04  3.1897e-04  2.1015e-03  8.6051e-04  2.5120e-04  0:01:39 1681
  2739  2.1352e-03  7.4626e-04  3.1810e-04  2.0903e-03  8.5508e-04  2.5198e-04  0:01:19 1680
  2740  2.1288e-03  7.4984e-04  3.1673e-04  2.0837e-03  8.4941e-04  2.5292e-04  0:01:03 1679
  2741  2.1283e-03  7.6884e-04  3.1474e-04  2.0830e-03  8.4345e-04  2.5375e-04  0:00:50 1678
  2742  2.1313e-03  7.8240e-04  3.1284e-04  2.0859e-03  8.3731e-04  2.5460e-04  0:00:40 1677
  2743  2.1368e-03  7.8631e-04  3.1155e-04  2.0913e-03  8.3097e-04  2.5657e-04  0:06:07 1676
  2744  2.1458e-03  7.9298e-04  3.1071e-04  2.1002e-03  8.2426e-04  2.5847e-04  0:04:54 1675
  2745  2.1565e-03  7.9921e-04  3.1063e-04  2.1109e-03  8.1730e-04  2.6049e-04  0:03:55 1674
  2746  2.1685e-03  8.1033e-04  3.1076e-04  2.1227e-03  8.1021e-04  2.6260e-04  0:03:08 1673
  2747  2.1810e-03  8.1755e-04  3.1030e-04  2.1351e-03  8.0280e-04  2.6460e-04  0:02:30 1672
  2748  2.1950e-03  8.4432e-04  3.0969e-04  2.1488e-03  7.9510e-04  2.6632e-04  0:02:00 1671

  iter  continuity  x-velocity  y-velocity      energy           k       omega     time/iter
  2749  2.2042e-03  8.3736e-04  3.0916e-04  2.1579e-03  7.8714e-04  2.6837e-04  0:01:36 1670
  2750  2.2140e-03  8.2730e-04  3.1005e-04  2.1675e-03  7.7900e-04  2.7021e-04  0:01:17 1669
  2751  2.2236e-03  8.3135e-04  3.1066e-04  2.1767e-03  7.7079e-04  2.7208e-04  0:01:01 1668
  2752  2.2331e-03  8.4696e-04  3.1125e-04  2.1857e-03  7.6255e-04  2.7413e-04  0:00:49 1667
  2753  2.2422e-03  8.6946e-04  3.1218e-04  2.1942e-03  7.5411e-04  2.7641e-04  0:06:12 1666
  2754  2.2480e-03  8.7595e-04  3.1007e-04  2.1992e-03  7.4564e-04  2.7853e-04  0:04:58 1665
  2755  2.2525e-03  8.7269e-04  3.0944e-04  2.2028e-03  7.3697e-04  2.8043e-04  0:03:58 1664
  2756  2.2578e-03  8.8779e-04  3.1045e-04  2.2071e-03  7.2818e-04  2.8225e-04  0:03:10 1663
  2757  2.2628e-03  9.0283e-04  3.0997e-04  2.2112e-03  7.1932e-04  2.8413e-04  0:02:32 1662
  2758  2.2659e-03  9.0011e-04  3.1048e-04  2.2136e-03  7.1033e-04  2.8575e-04  0:02:02 1661
  2759  2.2665e-03  8.7394e-04  3.0934e-04  2.2138e-03  7.0128e-04  2.8721e-04  0:01:37 1660

  iter  continuity  x-velocity  y-velocity      energy           k       omega     time/iter
  2760  2.2724e-03  8.7492e-04  3.0791e-04  2.2193e-03  6.9224e-04  2.8914e-04  0:01:18 1659
  2761  2.2802e-03  8.7897e-04  3.0770e-04  2.2265e-03  6.8335e-04  2.9104e-04  0:01:02 1658
  2762  2.2888e-03  8.6348e-04  3.0778e-04  2.2347e-03  6.7448e-04  2.9292e-04  0:00:50 1657
  2763  2.3025e-03  8.5854e-04  3.0928e-04  2.2478e-03  6.6579e-04  2.9461e-04  0:00:40 1656
  2764  2.3202e-03  8.5669e-04  3.1157e-04  2.2649e-03  6.5734e-04  2.9592e-04  0:06:03 1655
  2765  2.3418e-03  8.5389e-04  3.1293e-04  2.2860e-03  6.4914e-04  2.9720e-04  0:04:50 1654
  2766  2.3674e-03  8.4721e-04  3.1218e-04  2.3110e-03  6.4124e-04  2.9877e-04  0:03:52 1653
  2767  2.3973e-03  8.4165e-04  3.1160e-04  2.3403e-03  6.3387e-04  3.0010e-04  0:03:05 1652
  2768  2.4321e-03  8.4324e-04  3.1052e-04  2.3745e-03  6.2701e-04  3.0115e-04  0:02:28 1651
  2769  2.4714e-03  8.4886e-04  3.0877e-04  2.4131e-03  6.2075e-04  3.0206e-04  0:01:59 1650
  2770  2.5142e-03  8.6188e-04  3.0831e-04  2.4554e-03  6.1524e-04  3.0280e-04  0:01:35 1649

  iter  continuity  x-velocity  y-velocity      energy           k       omega     time/iter
  2771  2.5567e-03  8.6224e-04  3.0884e-04  2.4975e-03  6.1051e-04  3.0340e-04  0:01:16 1648
  2772  2.6018e-03  8.5867e-04  3.1041e-04  2.5421e-03  6.0628e-04  3.0379e-04  0:01:01 1647
  2773  2.6483e-03  8.5656e-04  3.1292e-04  2.5881e-03  6.0257e-04  3.0408e-04  0:00:48 1646
  2774  2.6955e-03  8.6079e-04  3.1246e-04  2.6348e-03  5.9921e-04  3.0434e-04  0:06:08 1645
  2775  2.7422e-03  8.6493e-04  3.1119e-04  2.6810e-03  5.9628e-04  3.0440e-04  0:04:54 1644
  2776  2.7894e-03  8.8375e-04  3.1070e-04  2.7277e-03  5.9370e-04  3.0427e-04  0:03:55 1643
  2777  2.8354e-03  9.0567e-04  3.1169e-04  2.7730e-03  5.9153e-04  3.0408e-04  0:03:08 1642
  2778  2.8779e-03  9.2829e-04  3.1461e-04  2.8152e-03  5.8962e-04  3.0385e-04  0:02:30 1641
  2779  2.9147e-03  9.1201e-04  3.1583e-04  2.8517e-03  5.8809e-04  3.0347e-04  0:02:00 1640
  2780  2.9501e-03  9.0167e-04  3.1563e-04  2.8868e-03  5.8688e-04  3.0298e-04  0:01:36 1639
  2781  2.9825e-03  8.9797e-04  3.1650e-04  2.9188e-03  5.8601e-04  3.0231e-04  0:06:44 1638

  iter  continuity  x-velocity  y-velocity      energy           k       omega     time/iter
  2782  3.0115e-03  8.9156e-04  3.1671e-04  2.9473e-03  5.8548e-04  3.0147e-04  0:05:23 1637
  2783  3.0391e-03  9.0470e-04  3.1872e-04  2.9745e-03  5.8537e-04  3.0063e-04  0:04:18 1636
  2784  3.0612e-03  9.0653e-04  3.1885e-04  2.9961e-03  5.8551e-04  2.9948e-04  0:03:27 1635
  2785  3.0813e-03  9.0789e-04  3.1674e-04  3.0155e-03  5.8602e-04  2.9810e-04  0:02:45 1634
  2786  3.1003e-03  9.1683e-04  3.1839e-04  3.0336e-03  5.8688e-04  2.9677e-04  0:02:12 1633
  2787  3.1161e-03  9.3111e-04  3.2056e-04  3.0484e-03  5.8784e-04  2.9542e-04  0:01:46 1632
  2788  3.1276e-03  9.1347e-04  3.2206e-04  3.0588e-03  5.8918e-04  2.9378e-04  0:01:24 1631
  2789  3.1388e-03  9.3955e-04  3.2383e-04  3.0688e-03  5.9072e-04  2.9182e-04  0:01:08 1630
  2790  3.1372e-03  8.9472e-04  3.2457e-04  3.0670e-03  5.9247e-04  2.8992e-04  0:06:20 1629
  2791  3.1365e-03  8.4708e-04  3.2201e-04  3.0662e-03  5.9432e-04  2.8818e-04  0:05:04 1628
  2792  3.1359e-03  8.3270e-04  3.1820e-04  3.0654e-03  5.9622e-04  2.8633e-04  0:04:03 1627

  iter  continuity  x-velocity  y-velocity      energy           k       omega     time/iter
  2793  3.1351e-03  8.2791e-04  3.1586e-04  3.0641e-03  5.9813e-04  2.8458e-04  0:03:14 1626
  2794  3.1339e-03  8.2729e-04  3.1551e-04  3.0620e-03  6.0014e-04  2.8300e-04  0:02:35 1625
  2795  3.1323e-03  8.2374e-04  3.1772e-04  3.0595e-03  6.0225e-04  2.8139e-04  0:02:04 1624
  2796  3.1295e-03  8.1771e-04  3.2044e-04  3.0558e-03  6.0437e-04  2.7964e-04  0:01:39 1623
  2797  3.1255e-03  8.0498e-04  3.2306e-04  3.0513e-03  6.0636e-04  2.7787e-04  0:01:19 1622
  2798  3.1226e-03  7.9971e-04  3.2579e-04  3.0479e-03  6.0830e-04  2.7637e-04  0:01:03 1621
  2799  3.1204e-03  7.9918e-04  3.3110e-04  3.0451e-03  6.1014e-04  2.7487e-04  0:00:51 1620
  2800  3.1180e-03  7.9003e-04  3.3013e-04  3.0422e-03  6.1196e-04  2.7346e-04  0:06:04 1619
  2801  3.1172e-03  7.8570e-04  3.2973e-04  3.0409e-03  6.1365e-04  2.7215e-04  0:04:51 1618
  2802  3.1185e-03  7.9938e-04  3.2960e-04  3.0416e-03  6.1533e-04  2.7097e-04  0:03:53 1617
  2803  3.1204e-03  8.1652e-04  3.2998e-04  3.0431e-03  6.1682e-04  2.6985e-04  0:03:06 1616

  iter  continuity  x-velocity  y-velocity      energy           k       omega     time/iter
  2804  3.1219e-03  8.0414e-04  3.3338e-04  3.0446e-03  6.1821e-04  2.6876e-04  0:02:29 1615
  2805  3.1247e-03  7.9483e-04  3.3791e-04  3.0473e-03  6.1946e-04  2.6765e-04  0:01:59 1614
  2806  3.1292e-03  7.9795e-04  3.4155e-04  3.0516e-03  6.2059e-04  2.6647e-04  0:01:35 1613
  2807  3.1347e-03  8.0122e-04  3.4287e-04  3.0569e-03  6.2161e-04  2.6529e-04  0:01:16 1612
  2808  3.1416e-03  8.2678e-04  3.4402e-04  3.0640e-03  6.2247e-04  2.6437e-04  0:01:01 1611
  2809  3.1475e-03  8.4367e-04  3.4681e-04  3.0700e-03  6.2317e-04  2.6354e-04  0:00:49 1610
  2810  3.1544e-03  8.4876e-04  3.5103e-04  3.0772e-03  6.2373e-04  2.6268e-04  0:06:01 1609
  2811  3.1627e-03  8.6586e-04  3.5266e-04  3.0857e-03  6.2422e-04  2.6179e-04  0:04:48 1608
  2812  3.1698e-03  8.5825e-04  3.5338e-04  3.0929e-03  6.2449e-04  2.6094e-04  0:03:51 1607
  2813  3.1786e-03  8.7408e-04  3.5492e-04  3.1016e-03  6.2447e-04  2.6022e-04  0:03:04 1606
  2814  3.1840e-03  8.7256e-04  3.5743e-04  3.1074e-03  6.2418e-04  2.5953e-04  0:02:27 1605

  iter  continuity  x-velocity  y-velocity      energy           k       omega     time/iter
  2815  3.1907e-03  8.7784e-04  3.5717e-04  3.1143e-03  6.2369e-04  2.5866e-04  0:01:58 1604
  2816  3.1990e-03  8.8456e-04  3.5929e-04  3.1225e-03  6.2292e-04  2.5807e-04  0:01:34 1603
  2817  3.2043e-03  8.6764e-04  3.6054e-04  3.1275e-03  6.2199e-04  2.5755e-04  0:01:15 1602
  2818  3.2105e-03  8.7473e-04  3.6374e-04  3.1336e-03  6.2087e-04  2.5700e-04  0:06:20 1601
  2819  3.2075e-03  8.1203e-04  3.6059e-04  3.1315e-03  6.1963e-04  2.5637e-04  0:05:04 1600
  2820  3.2075e-03  7.7614e-04  3.5655e-04  3.1325e-03  6.1824e-04  2.5576e-04  0:04:03 1599
  2821  3.2095e-03  7.8150e-04  3.5414e-04  3.1350e-03  6.1684e-04  2.5514e-04  0:03:14 1598
  2822  3.2101e-03  7.8211e-04  3.5069e-04  3.1358e-03  6.1528e-04  2.5458e-04  0:02:35 1597
  2823  3.2101e-03  7.8937e-04  3.4842e-04  3.1359e-03  6.1368e-04  2.5407e-04  0:02:04 1596
  2824  3.2094e-03  7.9473e-04  3.4936e-04  3.1353e-03  6.1201e-04  2.5366e-04  0:01:39 1595
  2825  3.2083e-03  8.0705e-04  3.5045e-04  3.1341e-03  6.1033e-04  2.5339e-04  0:01:19 1594

  iter  continuity  x-velocity  y-velocity      energy           k       omega     time/iter
  2826  3.2043e-03  7.9757e-04  3.5023e-04  3.1302e-03  6.0861e-04  2.5310e-04  0:06:22 1593
  2827  3.2009e-03  8.0026e-04  3.5002e-04  3.1270e-03  6.0671e-04  2.5289e-04  0:05:05 1592
  2828  3.1973e-03  8.1021e-04  3.5052e-04  3.1235e-03  6.0472e-04  2.5286e-04  0:04:04 1591
  2829  3.1919e-03  8.0998e-04  3.5336e-04  3.1183e-03  6.0262e-04  2.5283e-04  0:03:15 1590
  2830  3.1860e-03  8.1182e-04  3.5042e-04  3.1124e-03  6.0034e-04  2.5294e-04  0:02:36 1589
  2831  3.1806e-03  8.2706e-04  3.4851e-04  3.1068e-03  5.9797e-04  2.5303e-04  0:02:05 1588
  2832  3.1743e-03  8.4976e-04  3.4589e-04  3.1005e-03  5.9549e-04  2.5313e-04  0:01:40 1587
  2833  3.1640e-03  8.4776e-04  3.4353e-04  3.0905e-03  5.9282e-04  2.5331e-04  0:01:20 1586
  2834  3.1534e-03  8.3219e-04  3.4442e-04  3.0802e-03  5.9008e-04  2.5331e-04  0:01:04 1585
  2835  3.1421e-03  8.2474e-04  3.4713e-04  3.0691e-03  5.8716e-04  2.5328e-04  0:00:51 1584
  2836  3.1299e-03  8.2469e-04  3.4668e-04  3.0571e-03  5.8428e-04  2.5333e-04  0:05:57 1583

  iter  continuity  x-velocity  y-velocity      energy           k       omega     time/iter
  2837  3.1180e-03  8.3487e-04  3.4369e-04  3.0450e-03  5.8142e-04  2.5321e-04  0:04:46 1582
  2838  3.1052e-03  8.6439e-04  3.3987e-04  3.0324e-03  5.7866e-04  2.5298e-04  0:03:48 1581
  2839  3.0881e-03  8.6494e-04  3.4081e-04  3.0157e-03  5.7593e-04  2.5283e-04  0:03:03 1580
  2840  3.0710e-03  8.7187e-04  3.4341e-04  2.9989e-03  5.7326e-04  2.5278e-04  0:02:26 1579
  2841  3.0522e-03  8.6926e-04  3.4256e-04  2.9801e-03  5.7060e-04  2.5268e-04  0:01:57 1578
  2842  3.0334e-03  8.7765e-04  3.3912e-04  2.9614e-03  5.6812e-04  2.5247e-04  0:01:33 1577
  2843  3.0140e-03  8.8933e-04  3.3600e-04  2.9419e-03  5.6573e-04  2.5209e-04  0:01:15 1576
  2844  2.9905e-03  8.9666e-04  3.3482e-04  2.9187e-03  5.6339e-04  2.5152e-04  0:01:00 1575
  2845  2.9669e-03  8.8265e-04  3.3244e-04  2.8950e-03  5.6110e-04  2.5111e-04  0:00:48 1574
  2846  2.9463e-03  8.9549e-04  3.3456e-04  2.8739e-03  5.5890e-04  2.5061e-04  0:05:53 1573
  2847  2.9237e-03  9.1967e-04  3.3275e-04  2.8503e-03  5.5678e-04  2.5002e-04  0:04:42 1572

  iter  continuity  x-velocity  y-velocity      energy           k       omega     time/iter
  2848  2.8948e-03  9.0265e-04  3.3173e-04  2.8214e-03  5.5479e-04  2.4942e-04  0:03:45 1571
  2849  2.8583e-03  8.3781e-04  3.2613e-04  2.7858e-03  5.5286e-04  2.4885e-04  0:03:00 1570
  2850  2.8255e-03  8.0943e-04  3.2174e-04  2.7534e-03  5.5089e-04  2.4828e-04  0:02:24 1569
  2851  2.7933e-03  7.9561e-04  3.1710e-04  2.7213e-03  5.4896e-04  2.4758e-04  0:01:55 1568
  2852  2.7614e-03  7.9698e-04  3.1072e-04  2.6894e-03  5.4715e-04  2.4687e-04  0:01:32 1567
  2853  2.7306e-03  7.9728e-04  3.1109e-04  2.6581e-03  5.4554e-04  2.4626e-04  0:01:14 1566
  2854  2.6995e-03  8.0242e-04  3.1186e-04  2.6265e-03  5.4406e-04  2.4565e-04  0:00:59 1565
  2855  2.6675e-03  8.0203e-04  3.1267e-04  2.5945e-03  5.4247e-04  2.4501e-04  0:00:47 1564
  2856  2.6372e-03  8.1320e-04  3.1168e-04  2.5641e-03  5.4084e-04  2.4434e-04  0:05:50 1563
  2857  2.6076e-03  8.1477e-04  3.1129e-04  2.5342e-03  5.3916e-04  2.4365e-04  0:04:40 1562
  2858  2.5784e-03  8.1794e-04  3.0645e-04  2.5046e-03  5.3736e-04  2.4291e-04  0:03:44 1561

  iter  continuity  x-velocity  y-velocity      energy           k       omega     time/iter
  2859  2.5496e-03  8.2215e-04  3.0016e-04  2.4753e-03  5.3538e-04  2.4196e-04  0:02:59 1560
  2860  2.5232e-03  8.3339e-04  2.9607e-04  2.4484e-03  5.3335e-04  2.4106e-04  0:02:23 1559
  2861  2.4941e-03  8.2984e-04  2.9334e-04  2.4194e-03  5.3131e-04  2.4037e-04  0:01:54 1558
  2862  2.4683e-03  8.2588e-04  2.9379e-04  2.3941e-03  5.2922e-04  2.3968e-04  0:01:31 1557
  2863  2.4445e-03  8.2814e-04  2.9752e-04  2.3702e-03  5.2697e-04  2.3899e-04  0:01:13 1556
  2864  2.4228e-03  8.3677e-04  2.9834e-04  2.3482e-03  5.2456e-04  2.3828e-04  0:00:58 1555
  2865  2.4040e-03  8.5737e-04  2.9913e-04  2.3290e-03  5.2205e-04  2.3756e-04  0:00:47 1554
  2866  2.3866e-03  8.7712e-04  2.9936e-04  2.3117e-03  5.1958e-04  2.3682e-04  0:05:48 1553
  2867  2.3658e-03  8.7983e-04  2.9921e-04  2.2918e-03  5.1706e-04  2.3643e-04  0:04:38 1552
  2868  2.3467e-03  8.4710e-04  3.0002e-04  2.2727e-03  5.1458e-04  2.3581e-04  0:03:42 1551
  2869  2.3304e-03  8.3112e-04  3.0145e-04  2.2563e-03  5.1204e-04  2.3505e-04  0:02:58 1550

  iter  continuity  x-velocity  y-velocity      energy           k       omega     time/iter
  2870  2.3178e-03  8.4559e-04  3.0013e-04  2.2441e-03  5.0952e-04  2.3374e-04  0:02:22 1549
  2871  2.3071e-03  8.7387e-04  2.9452e-04  2.2336e-03  5.0693e-04  2.3232e-04  0:01:54 1548
  2872  2.2940e-03  8.7648e-04  2.9577e-04  2.2207e-03  5.0436e-04  2.3155e-04  0:01:31 1547
  2873  2.2856e-03  8.6861e-04  2.9953e-04  2.2125e-03  5.0184e-04  2.3052e-04  0:01:13 1546
  2874  2.2804e-03  8.8581e-04  3.0509e-04  2.2069e-03  4.9937e-04  2.2928e-04  0:00:58 1545
  2875  2.2708e-03  8.7616e-04  3.0263e-04  2.1968e-03  4.9688e-04  2.2815e-04  0:00:46 1544
  2876  2.2689e-03  9.1485e-04  3.0488e-04  2.1945e-03  4.9444e-04  2.2699e-04  0:05:46 1543
  2877  2.2493e-03  8.5371e-04  3.0255e-04  2.1761e-03  4.9210e-04  2.2580e-04  0:04:36 1542
  2878  2.2402e-03  8.3871e-04  2.9565e-04  2.1678e-03  4.8992e-04  2.2457e-04  0:03:41 1541
  2879  2.2330e-03  8.2400e-04  2.9484e-04  2.1613e-03  4.8774e-04  2.2334e-04  0:02:57 1540
  2880  2.2258e-03  8.0994e-04  2.9263e-04  2.1547e-03  4.8578e-04  2.2193e-04  0:02:21 1539

  iter  continuity  x-velocity  y-velocity      energy           k       omega     time/iter
  2881  2.2201e-03  8.0716e-04  2.8883e-04  2.1494e-03  4.8400e-04  2.2065e-04  0:01:53 1538
  2882  2.2137e-03  7.9935e-04  2.8654e-04  2.1431e-03  4.8231e-04  2.1957e-04  0:01:30 1537
  2883  2.2079e-03  7.8920e-04  2.8189e-04  2.1373e-03  4.8070e-04  2.1851e-04  0:01:12 1536
  2884  2.2057e-03  7.9471e-04  2.7863e-04  2.1350e-03  4.7910e-04  2.1755e-04  0:00:58 1535
  2885  2.2037e-03  8.0601e-04  2.7874e-04  2.1328e-03  4.7752e-04  2.1663e-04  0:05:53 1534
  2886  2.1991e-03  8.1578e-04  2.8246e-04  2.1290e-03  4.7600e-04  2.1571e-04  0:04:42 1533
  2887  2.1973e-03  8.2121e-04  2.8744e-04  2.1273e-03  4.7452e-04  2.1484e-04  0:03:46 1532
  2888  2.1957e-03  8.3122e-04  2.9036e-04  2.1256e-03  4.7307e-04  2.1408e-04  0:03:00 1531
  2889  2.1954e-03  8.4650e-04  2.8865e-04  2.1251e-03  4.7171e-04  2.1330e-04  0:02:24 1530
  2890  2.1946e-03  8.7164e-04  2.8463e-04  2.1243e-03  4.7042e-04  2.1228e-04  0:01:55 1529
  2891  2.1877e-03  8.7146e-04  2.8368e-04  2.1180e-03  4.6932e-04  2.1159e-04  0:01:32 1528

  iter  continuity  x-velocity  y-velocity      energy           k       omega     time/iter
  2892  2.1827e-03  8.5573e-04  2.8952e-04  2.1132e-03  4.6840e-04  2.1100e-04  0:01:14 1527
  2893  2.1780e-03  8.5218e-04  2.9457e-04  2.1088e-03  4.6776e-04  2.1038e-04  0:00:59 1526
  2894  2.1730e-03  8.5870e-04  2.9425e-04  2.1040e-03  4.6733e-04  2.0977e-04  0:00:47 1525
  2895  2.1668e-03  8.7985e-04  2.9146e-04  2.0983e-03  4.6717e-04  2.0911e-04  0:05:42 1524
  2896  2.1607e-03  8.6642e-04  2.9111e-04  2.0929e-03  4.6715e-04  2.0818e-04  0:04:34 1523
  2897  2.1589e-03  8.7175e-04  2.9380e-04  2.0909e-03  4.6727e-04  2.0737e-04  0:03:39 1522
  2898  2.1579e-03  9.0333e-04  2.9314e-04  2.0892e-03  4.6750e-04  2.0627e-04  0:02:55 1521
  2899  2.1503e-03  8.6913e-04  2.9301e-04  2.0814e-03  4.6786e-04  2.0573e-04  0:02:20 1520
  2900  2.1563e-03  9.2419e-04  2.9777e-04  2.0860e-03  4.6839e-04  2.0528e-04  0:01:52 1519
  2901  2.1492e-03  9.1590e-04  3.0105e-04  2.0789e-03  4.6905e-04  2.0464e-04  0:01:29 1518
  2902  2.1349e-03  8.4475e-04  2.9715e-04  2.0660e-03  4.6972e-04  2.0402e-04  0:01:11 1517

  iter  continuity  x-velocity  y-velocity      energy           k       omega     time/iter
  2903  2.1271e-03  8.2516e-04  2.9589e-04  2.0594e-03  4.7037e-04  2.0342e-04  0:00:57 1516
  2904  2.1219e-03  8.2393e-04  2.9292e-04  2.0548e-03  4.7100e-04  2.0288e-04  0:00:46 1515
  2905  2.1160e-03  8.1252e-04  2.8844e-04  2.0489e-03  4.7174e-04  2.0250e-04  0:05:39 1514
  2906  2.1104e-03  7.9767e-04  2.8170e-04  2.0433e-03  4.7251e-04  2.0224e-04  0:04:31 1513
  2907  2.1084e-03  7.9865e-04  2.8234e-04  2.0410e-03  4.7337e-04  2.0189e-04  0:03:37 1512
  2908  2.1051e-03  8.0973e-04  2.8404e-04  2.0377e-03  4.7435e-04  2.0158e-04  0:02:53 1511
  2909  2.1024e-03  8.1085e-04  2.8406e-04  2.0357e-03  4.7540e-04  2.0133e-04  0:02:19 1510
  2910  2.1012e-03  8.1655e-04  2.8613e-04  2.0345e-03  4.7652e-04  2.0103e-04  0:01:51 1509
  2911  2.1007e-03  8.2984e-04  2.8272e-04  2.0343e-03  4.7762e-04  2.0067e-04  0:01:29 1508
  2912  2.1039e-03  8.5286e-04  2.7812e-04  2.0374e-03  4.7874e-04  2.0038e-04  0:06:12 1507
  2913  2.1071e-03  8.7684e-04  2.7718e-04  2.0407e-03  4.7989e-04  2.0005e-04  0:04:58 1506

  iter  continuity  x-velocity  y-velocity      energy           k       omega     time/iter
  2914  2.1083e-03  8.6880e-04  2.7977e-04  2.0426e-03  4.8109e-04  1.9999e-04  0:03:58 1505
  2915  2.1085e-03  8.5218e-04  2.8322e-04  2.0428e-03  4.8228e-04  1.9985e-04  0:03:10 1504
  2916  2.1110e-03  8.5528e-04  2.8065e-04  2.0455e-03  4.8353e-04  1.9964e-04  0:02:32 1503
  2917  2.1159e-03  8.8243e-04  2.7773e-04  2.0513e-03  4.8477e-04  1.9945e-04  0:02:02 1502
  2918  2.1175e-03  8.7963e-04  2.8060e-04  2.0540e-03  4.8600e-04  1.9928e-04  0:01:37 1501
  2919  2.1228e-03  8.6819e-04  2.8401e-04  2.0595e-03  4.8726e-04  1.9911e-04  0:01:18 1500
  2920  2.1302e-03  8.8716e-04  2.8504e-04  2.0670e-03  4.8852e-04  1.9875e-04  0:06:02 1499
  2921  2.1372e-03  9.0143e-04  2.8728e-04  2.0741e-03  4.8972e-04  1.9857e-04  0:04:49 1498
  2922  2.1465e-03  9.0041e-04  2.8491e-04  2.0835e-03  4.9097e-04  1.9846e-04  0:03:51 1497
  2923  2.1598e-03  9.1932e-04  2.9037e-04  2.0962e-03  4.9224e-04  1.9826e-04  0:03:05 1496
  2924  2.1767e-03  9.5641e-04  2.9196e-04  2.1122e-03  4.9343e-04  1.9799e-04  0:02:28 1495

  iter  continuity  x-velocity  y-velocity      energy           k       omega     time/iter
  2925  2.1745e-03  9.1729e-04  2.9101e-04  2.1114e-03  4.9450e-04  1.9772e-04  0:01:58 1494
  2926  2.1756e-03  8.5899e-04  2.8253e-04  2.1144e-03  4.9545e-04  1.9731e-04  0:01:34 1493
  2927  2.1818e-03  8.4146e-04  2.7500e-04  2.1216e-03  4.9636e-04  1.9698e-04  0:01:16 1492
  2928  2.1904e-03  8.3805e-04  2.6746e-04  2.1306e-03  4.9726e-04  1.9676e-04  0:05:59 1491
  2929  2.2000e-03  8.3996e-04  2.6594e-04  2.1402e-03  4.9819e-04  1.9684e-04  0:04:47 1490
  2930  2.2064e-03  8.2586e-04  2.6600e-04  2.1471e-03  4.9915e-04  1.9683e-04  0:03:49 1489
  2931  2.2114e-03  8.0175e-04  2.6490e-04  2.1533e-03  5.0013e-04  1.9677e-04  0:03:03 1488
  2932  2.2194e-03  7.9216e-04  2.6336e-04  2.1621e-03  5.0111e-04  1.9651e-04  0:02:26 1487
  2933  2.2272e-03  7.8596e-04  2.6447e-04  2.1705e-03  5.0207e-04  1.9603e-04  0:01:57 1486
  2934  2.2386e-03  7.9730e-04  2.6103e-04  2.1823e-03  5.0305e-04  1.9559e-04  0:01:34 1485
  2935  2.2521e-03  8.1817e-04  2.6195e-04  2.1955e-03  5.0400e-04  1.9567e-04  0:01:15 1484

  iter  continuity  x-velocity  y-velocity      energy           k       omega     time/iter
  2936  2.2611e-03  8.2752e-04  2.6067e-04  2.2050e-03  5.0494e-04  1.9550e-04  0:01:00 1483
  2937  2.2706e-03  8.1832e-04  2.6200e-04  2.2150e-03  5.0589e-04  1.9523e-04  0:00:48 1482
  2938  2.2792e-03  8.1257e-04  2.6135e-04  2.2240e-03  5.0681e-04  1.9488e-04  0:05:34 1481
  2939  2.2886e-03  8.1285e-04  2.5994e-04  2.2339e-03  5.0767e-04  1.9450e-04  0:04:27 1480
  2940  2.2999e-03  8.4194e-04  2.6021e-04  2.2457e-03  5.0853e-04  1.9405e-04  0:03:34 1479
  2941  2.3030e-03  8.3069e-04  2.5831e-04  2.2494e-03  5.0937e-04  1.9366e-04  0:02:51 1478
  2942  2.3081e-03  8.2023e-04  2.5914e-04  2.2550e-03  5.1015e-04  1.9322e-04  0:02:17 1477
  2943  2.3151e-03  8.2349e-04  2.6285e-04  2.2623e-03  5.1093e-04  1.9271e-04  0:01:49 1476
  2944  2.3241e-03  8.5036e-04  2.6378e-04  2.2716e-03  5.1170e-04  1.9215e-04  0:01:27 1475
  2945  2.3274e-03  8.6064e-04  2.6598e-04  2.2750e-03  5.1239e-04  1.9156e-04  0:01:10 1474
  2946  2.3312e-03  8.3376e-04  2.6569e-04  2.2792e-03  5.1315e-04  1.9096e-04  0:00:56 1473

  iter  continuity  x-velocity  y-velocity      energy           k       omega     time/iter
  2947  2.3427e-03  8.6723e-04  2.7162e-04  2.2903e-03  5.1388e-04  1.9030e-04  0:05:39 1472
  2948  2.3464e-03  8.6900e-04  2.6822e-04  2.2935e-03  5.1448e-04  1.8938e-04  0:04:31 1471
  2949  2.3509e-03  8.9665e-04  2.6130e-04  2.2981e-03  5.1492e-04  1.8869e-04  0:03:37 1470
  2950  2.3402e-03  8.0285e-04  2.5611e-04  2.2891e-03  5.1527e-04  1.8827e-04  0:02:53 1469
  2951  2.3375e-03  7.8315e-04  2.4962e-04  2.2875e-03  5.1555e-04  1.8792e-04  0:02:18 1468
  2952  2.3350e-03  7.5922e-04  2.4670e-04  2.2857e-03  5.1581e-04  1.8756e-04  0:01:51 1467
  2953  2.3339e-03  7.3854e-04  2.4812e-04  2.2848e-03  5.1606e-04  1.8729e-04  0:01:29 1466
  2954  2.3317e-03  7.2822e-04  2.4628e-04  2.2831e-03  5.1633e-04  1.8703e-04  0:01:11 1465
  2955  2.3293e-03  7.1680e-04  2.4300e-04  2.2813e-03  5.1660e-04  1.8677e-04  0:00:57 1464
  2956  2.3274e-03  7.1055e-04  2.4111e-04  2.2797e-03  5.1684e-04  1.8650e-04  0:00:45 1463
  2957  2.3258e-03  7.0669e-04  2.3972e-04  2.2782e-03  5.1703e-04  1.8612e-04  0:05:29 1462

  iter  continuity  x-velocity  y-velocity      energy           k       omega     time/iter
  2958  2.3251e-03  7.1244e-04  2.3652e-04  2.2777e-03  5.1719e-04  1.8571e-04  0:04:23 1461
  2959  2.3263e-03  7.1897e-04  2.3930e-04  2.2785e-03  5.1728e-04  1.8527e-04  0:03:30 1460
  2960  2.3265e-03  7.2996e-04  2.4259e-04  2.2788e-03  5.1726e-04  1.8485e-04  0:02:48 1459
  2961  2.3259e-03  7.3347e-04  2.4273e-04  2.2790e-03  5.1717e-04  1.8429e-04  0:02:14 1458
  2962  2.3245e-03  7.2792e-04  2.4301e-04  2.2779e-03  5.1697e-04  1.8382e-04  0:01:47 1457
  2963  2.3226e-03  7.3416e-04  2.4224e-04  2.2764e-03  5.1673e-04  1.8327e-04  0:01:26 1456
  2964  2.3213e-03  7.3490e-04  2.4039e-04  2.2753e-03  5.1642e-04  1.8228e-04  0:01:09 1455
  2965  2.3209e-03  7.4987e-04  2.3827e-04  2.2751e-03  5.1606e-04  1.8147e-04  0:00:55 1454
  2966  2.3175e-03  7.5462e-04  2.3783e-04  2.2724e-03  5.1569e-04  1.8078e-04  0:05:34 1453
  2967  2.3115e-03  7.2427e-04  2.3952e-04  2.2667e-03  5.1527e-04  1.8019e-04  0:04:27 1452
  2968  2.3073e-03  7.1952e-04  2.4115e-04  2.2628e-03  5.1484e-04  1.7947e-04  0:03:34 1451

  iter  continuity  x-velocity  y-velocity      energy           k       omega     time/iter
  2969  2.3032e-03  7.3000e-04  2.4179e-04  2.2591e-03  5.1442e-04  1.7875e-04  0:02:51 1450
  2970  2.3014e-03  7.6699e-04  2.4312e-04  2.2579e-03  5.1389e-04  1.7804e-04  0:02:17 1449
  2971  2.2948e-03  7.7259e-04  2.4649e-04  2.2517e-03  5.1331e-04  1.7743e-04  0:01:49 1448
  2972  2.2890e-03  7.5588e-04  2.4893e-04  2.2460e-03  5.1266e-04  1.7686e-04  0:01:27 1447
  2973  2.2887e-03  7.8230e-04  2.5203e-04  2.2453e-03  5.1201e-04  1.7647e-04  0:01:10 1446
  2974  2.2842e-03  8.0021e-04  2.4857e-04  2.2400e-03  5.1132e-04  1.7608e-04  0:00:56 1445
  2975  2.2808e-03  8.3306e-04  2.4607e-04  2.2364e-03  5.1053e-04  1.7566e-04  0:00:45 1444
  2976  2.2595e-03  7.3726e-04  2.3762e-04  2.2166e-03  5.0972e-04  1.7519e-04  0:00:36 1443
  2977  2.2481e-03  7.1403e-04  2.3180e-04  2.2061e-03  5.0893e-04  1.7479e-04  0:05:17 1442
  2978  2.2411e-03  7.2376e-04  2.3219e-04  2.1996e-03  5.0818e-04  1.7445e-04  0:04:13 1441
  2979  2.2331e-03  7.3424e-04  2.3233e-04  2.1916e-03  5.0742e-04  1.7408e-04  0:03:23 1440

  iter  continuity  x-velocity  y-velocity      energy           k       omega     time/iter
  2980  2.2184e-03  7.0410e-04  2.3043e-04  2.1777e-03  5.0676e-04  1.7372e-04  0:02:42 1439
  2981  2.2023e-03  6.4541e-04  2.2572e-04  2.1627e-03  5.0608e-04  1.7334e-04  0:02:09 1438
  2982  2.1911e-03  6.2809e-04  2.1975e-04  2.1520e-03  5.0538e-04  1.7291e-04  0:01:43 1437
  2983  2.1795e-03  6.0972e-04  2.1808e-04  2.1404e-03  5.0466e-04  1.7242e-04  0:01:23 1436
  2984  2.1686e-03  5.9849e-04  2.1385e-04  2.1295e-03  5.0390e-04  1.7189e-04  0:01:06 1435
  2985  2.1590e-03  5.9989e-04  2.1370e-04  2.1197e-03  5.0310e-04  1.7139e-04  0:00:53 1434
  2986  2.1506e-03  6.1130e-04  2.1497e-04  2.1112e-03  5.0225e-04  1.7080e-04  0:00:42 1433
  2987  2.1395e-03  6.0633e-04  2.1471e-04  2.1002e-03  5.0144e-04  1.7012e-04  0:05:20 1432
  2988  2.1290e-03  6.1075e-04  2.1465e-04  2.0903e-03  5.0062e-04  1.6964e-04  0:04:16 1431
  2989  2.1188e-03  6.2301e-04  2.1686e-04  2.0804e-03  4.9982e-04  1.6908e-04  0:03:25 1430
  2990  2.1061e-03  6.0941e-04  2.1635e-04  2.0677e-03  4.9906e-04  1.6847e-04  0:02:44 1429

  iter  continuity  x-velocity  y-velocity      energy           k       omega     time/iter
  2991  2.0952e-03  6.1808e-04  2.1267e-04  2.0567e-03  4.9838e-04  1.6782e-04  0:02:11 1428
  2992  2.0855e-03  6.4561e-04  2.1106e-04  2.0468e-03  4.9775e-04  1.6715e-04  0:01:45 1427
  2993  2.0724e-03  6.5780e-04  2.1089e-04  2.0339e-03  4.9721e-04  1.6642e-04  0:01:24 1426
  2994  2.0603e-03  6.7125e-04  2.1170e-04  2.0223e-03  4.9666e-04  1.6555e-04  0:01:07 1425
  2995  2.0449e-03  6.5666e-04  2.1423e-04  2.0068e-03  4.9609e-04  1.6482e-04  0:00:53 1424
  2996  2.0295e-03  6.5245e-04  2.1313e-04  1.9914e-03  4.9547e-04  1.6391e-04  0:00:43 1423
  2997  2.0152e-03  6.6272e-04  2.1206e-04  1.9774e-03  4.9483e-04  1.6307e-04  0:05:19 1422
  2998  2.0009e-03  6.8881e-04  2.1406e-04  1.9633e-03  4.9424e-04  1.6224e-04  0:04:15 1421
  2999  1.9830e-03  6.7626e-04  2.1578e-04  1.9453e-03  4.9360e-04  1.6118e-04  0:03:24 1420
  3000  1.9671e-03  6.6992e-04  2.2025e-04  1.9294e-03  4.9293e-04  1.6025e-04  0:02:43 1419
  3001  1.9549e-03  6.7027e-04  2.2437e-04  1.9165e-03  4.9224e-04  1.5957e-04  0:02:10 1418

  iter  continuity  x-velocity  y-velocity      energy           k       omega     time/iter
  3002  1.9410e-03  6.8326e-04  2.2771e-04  1.9019e-03  4.9153e-04  1.5891e-04  0:01:44 1417
  3003  1.9313e-03  7.0895e-04  2.2601e-04  1.8916e-03  4.9088e-04  1.5812e-04  0:01:23 1416
  3004  1.9080e-03  7.0654e-04  2.2236e-04  1.8689e-03  4.9023e-04  1.5738e-04  0:01:06 1415
  3005  1.8827e-03  6.2525e-04  2.1664e-04  1.8449e-03  4.8959e-04  1.5663e-04  0:00:53 1414
  3006  1.8632e-03  6.0229e-04  2.1284e-04  1.8263e-03  4.8896e-04  1.5591e-04  0:05:25 1413
  3007  1.8447e-03  5.8363e-04  2.1071e-04  1.8081e-03  4.8833e-04  1.5521e-04  0:04:20 1412
  3008  1.8258e-03  5.7102e-04  2.0832e-04  1.7894e-03  4.8774e-04  1.5452e-04  0:03:28 1411
  3009  1.8077e-03  5.7252e-04  2.0569e-04  1.7716e-03  4.8717e-04  1.5385e-04  0:02:46 1410
  3010  1.7887e-03  5.6715e-04  2.0263e-04  1.7526e-03  4.8657e-04  1.5317e-04  0:02:13 1409
  3011  1.7698e-03  5.5670e-04  2.0145e-04  1.7339e-03  4.8597e-04  1.5252e-04  0:01:46 1408
  3012  1.7523e-03  5.5412e-04  1.9878e-04  1.7161e-03  4.8537e-04  1.5183e-04  0:01:25 1407

  iter  continuity  x-velocity  y-velocity      energy           k       omega     time/iter
  3013  1.7352e-03  5.5737e-04  1.9651e-04  1.6988e-03  4.8470e-04  1.5119e-04  0:01:08 1406
  3014  1.7175e-03  5.5246e-04  1.9661e-04  1.6808e-03  4.8396e-04  1.5058e-04  0:00:54 1405
  3015  1.7010e-03  5.5633e-04  1.9544e-04  1.6639e-03  4.8318e-04  1.4996e-04  0:00:43 1404
  3016  1.6823e-03  5.5899e-04  1.9449e-04  1.6453e-03  4.8237e-04  1.4936e-04  0:00:35 1403
  3017  1.6636e-03  5.6962e-04  1.9466e-04  1.6271e-03  4.8153e-04  1.4875e-04  0:05:08 1402
  3018  1.6473e-03  5.8082e-04  1.9432e-04  1.6110e-03  4.8064e-04  1.4816e-04  0:04:06 1401
  3019  1.6305e-03  5.7898e-04  1.9368e-04  1.5941e-03  4.7973e-04  1.4749e-04  0:03:17 1400
  3020  1.6140e-03  5.7802e-04  1.9121e-04  1.5774e-03  4.7881e-04  1.4683e-04  0:02:37 1399
  3021  1.5986e-03  5.8283e-04  1.9281e-04  1.5615e-03  4.7786e-04  1.4625e-04  0:02:06 1398
  3022  1.5868e-03  6.1231e-04  1.9293e-04  1.5492e-03  4.7689e-04  1.4563e-04  0:01:41 1397
  3023  1.5684e-03  6.1217e-04  1.9329e-04  1.5312e-03  4.7589e-04  1.4505e-04  0:01:20 1396

  iter  continuity  x-velocity  y-velocity      energy           k       omega     time/iter
  3024  1.5517e-03  5.9602e-04  1.9414e-04  1.5146e-03  4.7488e-04  1.4446e-04  0:01:04 1395
  3025  1.5415e-03  6.1378e-04  1.9586e-04  1.5041e-03  4.7387e-04  1.4385e-04  0:00:51 1394
  3026  1.5310e-03  6.3888e-04  1.9768e-04  1.4935e-03  4.7281e-04  1.4325e-04  0:00:41 1393
  3027  1.5152e-03  6.4502e-04  1.9858e-04  1.4781e-03  4.7172e-04  1.4266e-04  0:05:11 1392
  3028  1.5000e-03  6.4083e-04  1.9575e-04  1.4636e-03  4.7060e-04  1.4199e-04  0:04:09 1391
  3029  1.4836e-03  6.2031e-04  1.9272e-04  1.4480e-03  4.6946e-04  1.4138e-04  0:03:19 1390
  3030  1.4732e-03  6.2513e-04  1.9151e-04  1.4379e-03  4.6832e-04  1.4091e-04  0:02:39 1389
  3031  1.4611e-03  5.9376e-04  1.9554e-04  1.4256e-03  4.6717e-04  1.4040e-04  0:02:07 1388
  3032  1.4530e-03  5.7979e-04  1.9975e-04  1.4171e-03  4.6596e-04  1.3985e-04  0:01:42 1387
  3033  1.4481e-03  5.7739e-04  2.0015e-04  1.4115e-03  4.6479e-04  1.3936e-04  0:01:21 1386
  3034  1.4466e-03  6.0199e-04  2.0111e-04  1.4093e-03  4.6363e-04  1.3885e-04  0:01:05 1385

  iter  continuity  x-velocity  y-velocity      energy           k       omega     time/iter
  3035  1.4509e-03  6.4832e-04  2.0466e-04  1.4131e-03  4.6247e-04  1.3837e-04  0:00:52 1384
  3036  1.4396e-03  6.3659e-04  2.0796e-04  1.4026e-03  4.6126e-04  1.3790e-04  0:00:42 1383
  3037  1.4292e-03  5.6019e-04  2.0679e-04  1.3935e-03  4.6004e-04  1.3745e-04  0:05:10 1382
  3038  1.4259e-03  5.3432e-04  2.0250e-04  1.3912e-03  4.5887e-04  1.3698e-04  0:04:07 1381
  3039  1.4255e-03  5.1949e-04  1.9955e-04  1.3912e-03  4.5772e-04  1.3648e-04  0:03:18 1380
  3040  1.4269e-03  5.1243e-04  1.9652e-04  1.3930e-03  4.5655e-04  1.3617e-04  0:02:38 1379
  3041  1.4307e-03  5.1102e-04  1.9304e-04  1.3969e-03  4.5536e-04  1.3581e-04  0:02:06 1378
  3042  1.4358e-03  5.1184e-04  1.9078e-04  1.4020e-03  4.5423e-04  1.3541e-04  0:01:41 1377
  3043  1.4426e-03  5.1183e-04  1.8764e-04  1.4088e-03  4.5314e-04  1.3498e-04  0:01:21 1376
  3044  1.4505e-03  5.1296e-04  1.8681e-04  1.4165e-03  4.5208e-04  1.3451e-04  0:01:05 1375
  3045  1.4595e-03  5.1517e-04  1.8722e-04  1.4253e-03  4.5106e-04  1.3404e-04  0:05:26 1374

  iter  continuity  x-velocity  y-velocity      energy           k       omega     time/iter
  3046  1.4696e-03  5.1748e-04  1.8790e-04  1.4353e-03  4.5007e-04  1.3356e-04  0:04:21 1373
  3047  1.4807e-03  5.2830e-04  1.8634e-04  1.4464e-03  4.4911e-04  1.3312e-04  0:03:29 1372
  3048  1.4903e-03  5.2925e-04  1.8643e-04  1.4565e-03  4.4819e-04  1.3265e-04  0:02:47 1371
  3049  1.5019e-03  5.3078e-04  1.8639e-04  1.4682e-03  4.4732e-04  1.3223e-04  0:02:13 1370
  3050  1.5138e-03  5.3492e-04  1.8654e-04  1.4802e-03  4.4648e-04  1.3183e-04  0:01:47 1369
  3051  1.5266e-03  5.3518e-04  1.8705e-04  1.4930e-03  4.4569e-04  1.3146e-04  0:01:25 1368
  3052  1.5398e-03  5.2732e-04  1.8475e-04  1.5060e-03  4.4498e-04  1.3113e-04  0:01:08 1367
  3053  1.5545e-03  5.2376e-04  1.8549e-04  1.5205e-03  4.4474e-04  1.3083e-04  0:00:54 1366
  3054  1.5710e-03  5.3406e-04  1.8825e-04  1.5368e-03  4.4491e-04  1.3056e-04  0:05:17 1365
  3055  1.5882e-03  5.5298e-04  1.8969e-04  1.5540e-03  4.4527e-04  1.3025e-04  0:04:13 1364
  3056  1.6021e-03  5.4013e-04  1.9034e-04  1.5685e-03  4.4573e-04  1.2993e-04  0:03:22 1363

  iter  continuity  x-velocity  y-velocity      energy           k       omega     time/iter
  3057  1.6177e-03  5.3665e-04  1.9171e-04  1.5843e-03  4.4633e-04  1.2960e-04  0:02:42 1362
  3058  1.6342e-03  5.4595e-04  1.9456e-04  1.6013e-03  4.4701e-04  1.2936e-04  0:02:09 1361
  3059  1.6497e-03  5.3865e-04  1.9493e-04  1.6172e-03  4.4780e-04  1.2939e-04  0:01:43 1360
  3060  1.6670e-03  5.3072e-04  1.9515e-04  1.6347e-03  4.4867e-04  1.2934e-04  0:01:23 1359
  3061  1.6874e-03  5.4663e-04  1.9638e-04  1.6552e-03  4.4959e-04  1.2932e-04  0:01:06 1358
  3062  1.7064e-03  5.5397e-04  1.9684e-04  1.6742e-03  4.5054e-04  1.2942e-04  0:00:53 1357
  3063  1.7214e-03  5.3696e-04  1.9668e-04  1.6900e-03  4.5155e-04  1.2957e-04  0:00:42 1356
  3064  1.7403e-03  5.4016e-04  1.9830e-04  1.7092e-03  4.5257e-04  1.2977e-04  0:05:05 1355
  3065  1.7601e-03  5.3724e-04  2.0350e-04  1.7292e-03  4.5367e-04  1.3001e-04  0:04:04 1354
  3066  1.7821e-03  5.5925e-04  2.0341e-04  1.7513e-03  4.5479e-04  1.3028e-04  0:03:15 1353
  3067  1.8045e-03  5.7284e-04  2.0367e-04  1.7738e-03  4.5592e-04  1.3044e-04  0:02:36 1352

  iter  continuity  x-velocity  y-velocity      energy           k       omega     time/iter
  3068  1.8257e-03  5.8810e-04  2.0267e-04  1.7948e-03  4.5701e-04  1.3055e-04  0:02:04 1351
  3069  1.8454e-03  5.7115e-04  2.0136e-04  1.8147e-03  4.5808e-04  1.3067e-04  0:01:39 1350
  3070  1.8708e-03  5.9759e-04  2.0485e-04  1.8396e-03  4.5910e-04  1.3080e-04  0:01:20 1349
  3071  1.8922e-03  6.3936e-04  2.0964e-04  1.8608e-03  4.6013e-04  1.3088e-04  0:01:04 1348
  3072  1.9049e-03  6.1281e-04  2.0683e-04  1.8743e-03  4.6112e-04  1.3091e-04  0:00:51 1347
  3073  1.9172e-03  5.6131e-04  2.0424e-04  1.8875e-03  4.6209e-04  1.3097e-04  0:05:10 1346
  3074  1.9327e-03  5.4581e-04  2.0420e-04  1.9036e-03  4.6302e-04  1.3085e-04  0:04:08 1345
  3075  1.9473e-03  5.3403e-04  2.0291e-04  1.9186e-03  4.6389e-04  1.3092e-04  0:03:18 1344
  3076  1.9618e-03  5.2535e-04  2.0358e-04  1.9331e-03  4.6468e-04  1.3102e-04  0:02:38 1343
  3077  1.9751e-03  5.1726e-04  2.0403e-04  1.9465e-03  4.6545e-04  1.3106e-04  0:02:07 1342
  3078  1.9888e-03  5.2246e-04  2.0419e-04  1.9601e-03  4.6617e-04  1.3098e-04  0:01:41 1341

  iter  continuity  x-velocity  y-velocity      energy           k       omega     time/iter
  3079  2.0003e-03  5.1605e-04  2.0256e-04  1.9715e-03  4.6678e-04  1.3092e-04  0:01:21 1340
  3080  2.0113e-03  5.1359e-04  2.0355e-04  1.9824e-03  4.6729e-04  1.3097e-04  0:01:05 1339
  3081  2.0227e-03  5.3354e-04  2.0265e-04  1.9935e-03  4.6775e-04  1.3100e-04  0:00:52 1338
  3082  2.0315e-03  5.5341e-04  2.0037e-04  2.0024e-03  4.6811e-04  1.3104e-04  0:05:09 1337
  3083  2.0366e-03  5.4912e-04  1.9793e-04  2.0076e-03  4.6834e-04  1.3105e-04  0:04:07 1336
  3084  2.0382e-03  5.2208e-04  1.9565e-04  2.0096e-03  4.6845e-04  1.3097e-04  0:03:17 1335
  3085  2.0411e-03  5.1297e-04  1.9406e-04  2.0127e-03  4.6849e-04  1.3098e-04  0:02:38 1334
  3086  2.0428e-03  5.1430e-04  1.9225e-04  2.0145e-03  4.6847e-04  1.3102e-04  0:02:06 1333
  3087  2.0436e-03  5.1820e-04  1.9009e-04  2.0155e-03  4.6842e-04  1.3110e-04  0:01:41 1332
  3088  2.0435e-03  5.1952e-04  1.8820e-04  2.0153e-03  4.6828e-04  1.3116e-04  0:01:21 1331
  3089  2.0421e-03  5.1621e-04  1.8897e-04  2.0137e-03  4.6805e-04  1.3115e-04  0:01:04 1330

  iter  continuity  x-velocity  y-velocity      energy           k       omega     time/iter
  3090  2.0400e-03  5.1413e-04  1.9011e-04  2.0115e-03  4.6772e-04  1.3112e-04  0:00:51 1329
  3091  2.0373e-03  5.2107e-04  1.9016e-04  2.0087e-03  4.6728e-04  1.3136e-04  0:00:41 1328
  3092  2.0317e-03  5.1927e-04  1.9036e-04  2.0033e-03  4.6677e-04  1.3157e-04  0:04:58 1327
  3093  2.0264e-03  5.2062e-04  1.9002e-04  1.9982e-03  4.6617e-04  1.3176e-04  0:03:58 1326
  3094  2.0207e-03  5.2444e-04  1.9126e-04  1.9927e-03  4.6548e-04  1.3193e-04  0:03:11 1325
  3095  2.0143e-03  5.2855e-04  1.9291e-04  1.9862e-03  4.6470e-04  1.3204e-04  0:02:32 1324
  3096  2.0065e-03  5.2591e-04  1.9177e-04  1.9783e-03  4.6378e-04  1.3204e-04  0:02:02 1323
  3097  1.9989e-03  5.3120e-04  1.9154e-04  1.9706e-03  4.6279e-04  1.3206e-04  0:01:37 1322
  3098  1.9920e-03  5.4710e-04  1.9179e-04  1.9635e-03  4.6169e-04  1.3214e-04  0:01:18 1321
  3099  1.9824e-03  5.5711e-04  1.9166e-04  1.9541e-03  4.6048e-04  1.3222e-04  0:01:02 1320
  3100  1.9726e-03  5.5626e-04  1.9145e-04  1.9445e-03  4.5916e-04  1.3225e-04  0:00:50 1319

  iter  continuity  x-velocity  y-velocity      energy           k       omega     time/iter
  3101  1.9628e-03  5.5699e-04  1.9256e-04  1.9348e-03  4.5772e-04  1.3222e-04  0:00:40 1318
  3102  1.9515e-03  5.5565e-04  1.9402e-04  1.9237e-03  4.5616e-04  1.3211e-04  0:04:55 1317
  3103  1.9414e-03  5.6320e-04  1.9442e-04  1.9136e-03  4.5449e-04  1.3195e-04  0:03:56 1316
  3104  1.9329e-03  5.8692e-04  1.9429e-04  1.9052e-03  4.5272e-04  1.3158e-04  0:03:09 1315
  3105  1.9240e-03  6.0820e-04  1.9315e-04  1.8962e-03  4.5088e-04  1.3135e-04  0:06:54 1314
  3106  1.9125e-03  6.1188e-04  1.9144e-04  1.8848e-03  4.4896e-04  1.3118e-04  0:05:31 1313
  3107  1.9035e-03  6.1552e-04  1.9118e-04  1.8757e-03  4.4701e-04  1.3085e-04  0:04:24 1312
  3108  1.8949e-03  6.1118e-04  1.9408e-04  1.8668e-03  4.4501e-04  1.3071e-04  0:03:31 1311
  3109  1.8899e-03  6.3493e-04  1.9786e-04  1.8613e-03  4.4297e-04  1.3065e-04  0:02:49 1310
  3110  1.8880e-03  6.8715e-04  1.9695e-04  1.8588e-03  4.4092e-04  1.3052e-04  0:02:15 1309
  3111  1.8798e-03  6.9981e-04  1.9519e-04  1.8509e-03  4.3883e-04  1.3036e-04  0:06:10 1308

  iter  continuity  x-velocity  y-velocity      energy           k       omega     time/iter
  3112  1.8674e-03  6.5403e-04  1.9034e-04  1.8393e-03  4.3672e-04  1.3026e-04  0:04:55 1307
  3113  1.8620e-03  6.3991e-04  1.8798e-04  1.8344e-03  4.3457e-04  1.3016e-04  0:03:56 1306
  3114  1.8587e-03  6.3770e-04  1.8795e-04  1.8314e-03  4.3242e-04  1.3005e-04  0:03:09 1305
  3115  1.8582e-03  6.4020e-04  1.8754e-04  1.8308e-03  4.3023e-04  1.2991e-04  0:02:31 1304
  3116  1.8605e-03  6.5622e-04  1.8787e-04  1.8331e-03  4.2802e-04  1.2971e-04  0:02:01 1303
  3117  1.8642e-03  6.6123e-04  1.8931e-04  1.8368e-03  4.2573e-04  1.2955e-04  0:01:36 1302
  3118  1.8701e-03  6.7023e-04  1.9155e-04  1.8426e-03  4.2335e-04  1.2938e-04  0:01:17 1301
  3119  1.8767e-03  6.6801e-04  1.9300e-04  1.8491e-03  4.2087e-04  1.2923e-04  0:01:02 1300
  3120  1.8841e-03  6.5297e-04  1.9501e-04  1.8563e-03  4.1829e-04  1.2903e-04  0:00:49 1299
  3121  1.8927e-03  6.3046e-04  1.9466e-04  1.8649e-03  4.1561e-04  1.2883e-04  0:04:59 1298
  3122  1.9042e-03  6.2245e-04  1.9370e-04  1.8763e-03  4.1285e-04  1.2861e-04  0:03:59 1297

  iter  continuity  x-velocity  y-velocity      energy           k       omega     time/iter
[...]
  3894  1.3437e-03  3.5570e-04  1.2432e-04  1.2978e-03  2.0796e-04  9.6775e-05  0:00:16  525
  3895  1.3402e-03  3.5478e-04  1.2418e-04  1.2942e-03  2.0798e-04  9.6955e-05  0:01:57  524
  3896  1.3363e-03  3.5596e-04  1.2485e-04  1.2902e-03  2.0805e-04  9.7099e-05  0:01:34  523
  3897  1.3318e-03  3.5334e-04  1.2577e-04  1.2856e-03  2.0813e-04  9.7193e-05  0:01:15  522
  3898  1.3268e-03  3.5072e-04  1.2652e-04  1.2805e-03  2.0827e-04  9.7282e-05  0:01:00  521
  3899  1.3219e-03  3.5419e-04  1.2825e-04  1.2755e-03  2.0842e-04  9.7325e-05  0:00:48  520
  3900  1.3164e-03  3.5507e-04  1.3050e-04  1.2699e-03  2.0857e-04  9.7302e-05  0:00:38  519
  3901  1.3105e-03  3.5736e-04  1.3126e-04  1.2639e-03  2.0870e-04  9.7304e-05  0:00:30  518
  3902  1.3046e-03  3.5910e-04  1.3109e-04  1.2580e-03  2.0884e-04  9.7269e-05  0:00:24  517
  3903  1.2981e-03  3.5992e-04  1.3045e-04  1.2514e-03  2.0894e-04  9.7189e-05  0:00:19  516

  iter  continuity  x-velocity  y-velocity      energy           k       omega     time/iter
  3904  1.2909e-03  3.5674e-04  1.3044e-04  1.2443e-03  2.0904e-04  9.7088e-05  0:01:58  515
  3905  1.2836e-03  3.5377e-04  1.3118e-04  1.2371e-03  2.0912e-04  9.6963e-05  0:01:35  514
  3906  1.2763e-03  3.5267e-04  1.3169e-04  1.2299e-03  2.0922e-04  9.6843e-05  0:01:16  513
  3907  1.2697e-03  3.5443e-04  1.3178e-04  1.2234e-03  2.0935e-04  9.6768e-05  0:01:00  512
  3908  1.2640e-03  3.6602e-04  1.3181e-04  1.2177e-03  2.0955e-04  9.6782e-05  0:00:48  511
  3909  1.2582e-03  3.7414e-04  1.3207e-04  1.2119e-03  2.0973e-04  9.6828e-05  0:00:38  510
  3910  1.2522e-03  3.7286e-04  1.3320e-04  1.2060e-03  2.0999e-04  9.6937e-05  0:00:31  509
  3911  1.2465e-03  3.6273e-04  1.3330e-04  1.2005e-03  2.1028e-04  9.7133e-05  0:00:25  508
  3912  1.2430e-03  3.7336e-04  1.3394e-04  1.1970e-03  2.1056e-04  9.7379e-05  0:00:20  507
  3913  1.2402e-03  3.8388e-04  1.3321e-04  1.1943e-03  2.1087e-04  9.7609e-05  0:00:16  506
  3914  1.2369e-03  3.7615e-04  1.3221e-04  1.1911e-03  2.1116e-04  9.7817e-05  0:01:53  505

  iter  continuity  x-velocity  y-velocity      energy           k       omega     time/iter
  3915  1.2348e-03  3.7434e-04  1.3155e-04  1.1891e-03  2.1148e-04  9.7984e-05  0:01:31  504
  3916  1.2340e-03  3.8642e-04  1.3191e-04  1.1884e-03  2.1180e-04  9.8131e-05  0:01:12  503
  3917  1.2330e-03  3.9627e-04  1.3289e-04  1.1876e-03  2.1224e-04  9.8292e-05  0:00:58  502
  3918  1.2309e-03  3.8955e-04  1.3427e-04  1.1855e-03  2.1277e-04  9.8395e-05  0:00:46  501
  3919  1.2294e-03  3.8738e-04  1.3495e-04  1.1842e-03  2.1340e-04  9.8451e-05  0:00:37  500
  3920  1.2277e-03  3.7737e-04  1.3594e-04  1.1825e-03  2.1412e-04  9.8526e-05  0:00:29  499
  3921  1.2261e-03  3.7158e-04  1.3615e-04  1.1811e-03  2.1487e-04  9.8612e-05  0:00:23  498
  3922  1.2244e-03  3.6856e-04  1.3570e-04  1.1796e-03  2.1564e-04  9.8669e-05  0:00:19  497
  3923  1.2229e-03  3.7122e-04  1.3477e-04  1.1782e-03  2.1647e-04  9.8691e-05  0:00:15  496
  3924  1.2210e-03  3.6504e-04  1.3436e-04  1.1766e-03  2.1733e-04  9.8726e-05  0:01:51  495
  3925  1.2189e-03  3.5879e-04  1.3525e-04  1.1747e-03  2.1824e-04  9.8715e-05  0:01:29  494

  iter  continuity  x-velocity  y-velocity      energy           k       omega     time/iter
  3926  1.2168e-03  3.5432e-04  1.3697e-04  1.1729e-03  2.1916e-04  9.8758e-05  0:01:11  493
  3927  1.2158e-03  3.5977e-04  1.3841e-04  1.1722e-03  2.2012e-04  9.8834e-05  0:00:56  492
  3928  1.2154e-03  3.6455e-04  1.3991e-04  1.1721e-03  2.2118e-04  9.8973e-05  0:00:45  491
  3929  1.2158e-03  3.6636e-04  1.4056e-04  1.1728e-03  2.2222e-04  9.9103e-05  0:00:36  490
  3930  1.2165e-03  3.6808e-04  1.4071e-04  1.1738e-03  2.2325e-04  9.9166e-05  0:00:29  489
  3931  1.2179e-03  3.6980e-04  1.4091e-04  1.1756e-03  2.2429e-04  9.9044e-05  0:00:23  488
  3932  1.2194e-03  3.6497e-04  1.4110e-04  1.1776e-03  2.2535e-04  9.9004e-05  0:00:18  487
  3933  1.2221e-03  3.7008e-04  1.4093e-04  1.1807e-03  2.2642e-04  9.9066e-05  0:00:15  486
  3934  1.2247e-03  3.6826e-04  1.4080e-04  1.1839e-03  2.2749e-04  9.9157e-05  0:01:49  485
  3935  1.2288e-03  3.7271e-04  1.4103e-04  1.1885e-03  2.2856e-04  9.9259e-05  0:01:27  484
  3936  1.2346e-03  3.9035e-04  1.4192e-04  1.1948e-03  2.2965e-04  9.9364e-05  0:01:09  483

  iter  continuity  x-velocity  y-velocity      energy           k       omega     time/iter
  3937  1.2417e-03  4.1671e-04  1.4267e-04  1.2024e-03  2.3075e-04  9.9465e-05  0:00:55  482
  3938  1.2477e-03  4.2231e-04  1.4405e-04  1.2089e-03  2.3189e-04  9.9594e-05  0:00:44  481
  3939  1.2530e-03  4.1648e-04  1.4420e-04  1.2147e-03  2.3308e-04  9.9662e-05  0:00:35  480
  3940  1.2594e-03  4.1823e-04  1.4317e-04  1.2217e-03  2.3430e-04  9.9683e-05  0:00:28  479
  3941  1.2663e-03  4.0915e-04  1.4307e-04  1.2288e-03  2.3553e-04  9.9718e-05  0:00:22  478
  3942  1.2732e-03  3.9450e-04  1.4367e-04  1.2361e-03  2.3677e-04  9.9731e-05  0:00:18  477
  3943  1.2811e-03  3.8949e-04  1.4412e-04  1.2442e-03  2.3805e-04  9.9742e-05  0:00:14  476
  3944  1.2896e-03  3.8753e-04  1.4520e-04  1.2531e-03  2.3932e-04  9.9712e-05  0:01:46  475
  3945  1.2981e-03  3.7799e-04  1.4493e-04  1.2618e-03  2.4055e-04  9.9627e-05  0:01:25  474
  3946  1.3066e-03  3.7294e-04  1.4523e-04  1.2707e-03  2.4178e-04  9.9534e-05  0:01:08  473
  3947  1.3164e-03  3.8021e-04  1.4587e-04  1.2810e-03  2.4298e-04  9.9434e-05  0:00:54  472

  iter  continuity  x-velocity  y-velocity      energy           k       omega     time/iter
  3948  1.3270e-03  3.9613e-04  1.4691e-04  1.2920e-03  2.4418e-04  9.9380e-05  0:00:43  471
  3949  1.3377e-03  4.0945e-04  1.4889e-04  1.3032e-03  2.4542e-04  9.9386e-05  0:00:35  470
  3950  1.3472e-03  4.0854e-04  1.5128e-04  1.3132e-03  2.4670e-04  9.9408e-05  0:00:28  469
  3951  1.3573e-03  4.0445e-04  1.5360e-04  1.3239e-03  2.4793e-04  9.9411e-05  0:00:22  468
  3952  1.3686e-03  4.1063e-04  1.5545e-04  1.3358e-03  2.4913e-04  9.9382e-05  0:00:18  467
  3953  1.3800e-03  4.0787e-04  1.5566e-04  1.3476e-03  2.5029e-04  9.9313e-05  0:01:47  466
  3954  1.3919e-03  4.0664e-04  1.5468e-04  1.3599e-03  2.5137e-04  9.9126e-05  0:01:26  465
  3955  1.4038e-03  4.0672e-04  1.5329e-04  1.3724e-03  2.5237e-04  9.8882e-05  0:01:08  464
  3956  1.4162e-03  4.0983e-04  1.5261e-04  1.3852e-03  2.5329e-04  9.8855e-05  0:00:55  463
  3957  1.4276e-03  3.9459e-04  1.5233e-04  1.3969e-03  2.5409e-04  9.8777e-05  0:00:44  462
  3958  1.4398e-03  3.8733e-04  1.5225e-04  1.4095e-03  2.5483e-04  9.8598e-05  0:00:35  461

  iter  continuity  x-velocity  y-velocity      energy           k       omega     time/iter
  3959  1.4525e-03  3.9063e-04  1.5221e-04  1.4226e-03  2.5555e-04  9.8128e-05  0:00:28  460
  3960  1.4666e-03  4.1521e-04  1.5140e-04  1.4370e-03  2.5620e-04  9.7314e-05  0:00:22  459
  3961  1.4799e-03  4.2933e-04  1.5059e-04  1.4507e-03  2.5680e-04  9.6824e-05  0:00:18  458
  3962  1.4921e-03  4.2402e-04  1.4996e-04  1.4630e-03  2.5740e-04  9.6845e-05  0:00:14  457
  3963  1.5038e-03  4.0793e-04  1.5021e-04  1.4749e-03  2.5793e-04  9.6749e-05  0:01:42  456
  3964  1.5160e-03  3.9864e-04  1.5072e-04  1.4874e-03  2.5843e-04  9.6457e-05  0:01:22  455
  3965  1.5291e-03  3.9984e-04  1.5093e-04  1.5007e-03  2.5890e-04  9.6140e-05  0:01:05  454
  3966  1.5426e-03  4.0677e-04  1.5076e-04  1.5145e-03  2.5933e-04  9.5922e-05  0:00:52  453
  3967  1.5552e-03  4.0434e-04  1.5096e-04  1.5274e-03  2.5968e-04  9.5428e-05  0:00:42  452
  3968  1.5678e-03  4.0475e-04  1.5049e-04  1.5403e-03  2.5994e-04  9.4993e-05  0:00:33  451
  3969  1.5798e-03  3.9844e-04  1.4990e-04  1.5526e-03  2.6016e-04  9.4756e-05  0:00:27  450

  iter  continuity  x-velocity  y-velocity      energy           k       omega     time/iter
  3970  1.5918e-03  3.9574e-04  1.4924e-04  1.5648e-03  2.6031e-04  9.4500e-05  0:00:21  449
  3971  1.6032e-03  3.8670e-04  1.4868e-04  1.5765e-03  2.6041e-04  9.4187e-05  0:00:17  448
  3972  1.6143e-03  3.8274e-04  1.4794e-04  1.5879e-03  2.6045e-04  9.3598e-05  0:01:43  447
  3973  1.6254e-03  3.8022e-04  1.4663e-04  1.5992e-03  2.6045e-04  9.2903e-05  0:01:22  446
  3974  1.6362e-03  3.7908e-04  1.4593e-04  1.6102e-03  2.6044e-04  9.2487e-05  0:01:06  445
  3975  1.6468e-03  3.7801e-04  1.4559e-04  1.6210e-03  2.6036e-04  9.2164e-05  0:00:52  444
  3976  1.6572e-03  3.8422e-04  1.4542e-04  1.6317e-03  2.6026e-04  9.1770e-05  0:00:42  443
  3977  1.6673e-03  3.8816e-04  1.4468e-04  1.6419e-03  2.6009e-04  9.1165e-05  0:00:33  442
  3978  1.6768e-03  3.8867e-04  1.4374e-04  1.6516e-03  2.5989e-04  9.0592e-05  0:00:27  441
  3979  1.6856e-03  3.7761e-04  1.4289e-04  1.6605e-03  2.5962e-04  9.0196e-05  0:01:49  440
  3980  1.6943e-03  3.7275e-04  1.4178e-04  1.6693e-03  2.5926e-04  8.9818e-05  0:01:27  439

  iter  continuity  x-velocity  y-velocity      energy           k       omega     time/iter
  3981  1.7027e-03  3.7015e-04  1.4100e-04  1.6778e-03  2.5885e-04  8.9425e-05  0:01:10  438
  3982  1.7109e-03  3.7534e-04  1.4063e-04  1.6862e-03  2.5837e-04  8.9035e-05  0:00:56  437
  3983  1.7192e-03  3.8796e-04  1.4054e-04  1.6946e-03  2.5785e-04  8.8670e-05  0:00:44  436
  3984  1.7262e-03  3.8618e-04  1.4022e-04  1.7017e-03  2.5727e-04  8.8336e-05  0:00:35  435
  3985  1.7325e-03  3.6968e-04  1.3949e-04  1.7081e-03  2.5661e-04  8.8033e-05  0:00:28  434
  3986  1.7392e-03  3.6198e-04  1.3931e-04  1.7150e-03  2.5593e-04  8.7744e-05  0:00:23  433
  3987  1.7464e-03  3.6858e-04  1.3888e-04  1.7223e-03  2.5524e-04  8.7468e-05  0:00:18  432
  3988  1.7533e-03  3.7927e-04  1.3910e-04  1.7292e-03  2.5448e-04  8.7186e-05  0:00:14  431
  3989  1.7597e-03  3.8561e-04  1.3882e-04  1.7356e-03  2.5370e-04  8.6895e-05  0:01:37  430
  3990  1.7659e-03  3.9494e-04  1.3764e-04  1.7419e-03  2.5286e-04  8.6575e-05  0:01:18  429
  3991  1.7714e-03  4.0372e-04  1.3672e-04  1.7475e-03  2.5198e-04  8.6252e-05  0:01:02  428

  iter  continuity  x-velocity  y-velocity      energy           k       omega     time/iter
  3992  1.7766e-03  4.0811e-04  1.3636e-04  1.7528e-03  2.5106e-04  8.5861e-05  0:00:50  427
  3993  1.7810e-03  4.0590e-04  1.3516e-04  1.7572e-03  2.5005e-04  8.5340e-05  0:00:40  426
  3994  1.7841e-03  3.8717e-04  1.3304e-04  1.7603e-03  2.4900e-04  8.4938e-05  0:00:32  425
  3995  1.7871e-03  3.8000e-04  1.3162e-04  1.7634e-03  2.4787e-04  8.4651e-05  0:00:25  424
  3996  1.7898e-03  3.7803e-04  1.3037e-04  1.7663e-03  2.4669e-04  8.4332e-05  0:00:20  423
  3997  1.7925e-03  3.7912e-04  1.2838e-04  1.7691e-03  2.4548e-04  8.4009e-05  0:00:16  422
  3998  1.7943e-03  3.7198e-04  1.2826e-04  1.7711e-03  2.4423e-04  8.3722e-05  0:00:13  421
  3999  1.7955e-03  3.5563e-04  1.2781e-04  1.7724e-03  2.4292e-04  8.3439e-05  0:01:34  420
  4000  1.7964e-03  3.4269e-04  1.2646e-04  1.7734e-03  2.4158e-04  8.3142e-05  0:01:15  419
  4001  1.7979e-03  3.4706e-04  1.2614e-04  1.7749e-03  2.4027e-04  8.2811e-05  0:01:00  418
  4002  1.7992e-03  3.5398e-04  1.2684e-04  1.7762e-03  2.3895e-04  8.2448e-05  0:00:48  417

  iter  continuity  x-velocity  y-velocity      energy           k       omega     time/iter
  4003  1.8000e-03  3.5700e-04  1.2786e-04  1.7769e-03  2.3761e-04  8.2069e-05  0:00:38  416
  4004  1.8002e-03  3.5832e-04  1.2898e-04  1.7771e-03  2.3627e-04  8.1675e-05  0:00:31  415
  4005  1.7998e-03  3.5415e-04  1.2902e-04  1.7767e-03  2.3494e-04  8.1289e-05  0:00:24  414
  4006  1.7992e-03  3.5654e-04  1.2790e-04  1.7760e-03  2.3355e-04  8.0958e-05  0:00:19  413
  4007  1.7978e-03  3.6346e-04  1.2720e-04  1.7747e-03  2.3214e-04  8.0619e-05  0:00:16  412
  4008  1.7962e-03  3.6936e-04  1.2611e-04  1.7732e-03  2.3068e-04  8.0247e-05  0:01:35  411
  4009  1.7938e-03  3.6501e-04  1.2512e-04  1.7710e-03  2.2919e-04  7.9844e-05  0:01:15  410
  4010  1.7916e-03  3.6537e-04  1.2356e-04  1.7688e-03  2.2771e-04  7.9485e-05  0:01:00  409
  4011  1.7891e-03  3.6440e-04  1.2129e-04  1.7664e-03  2.2622e-04  7.9198e-05  0:00:48  408
  4012  1.7865e-03  3.6952e-04  1.2066e-04  1.7637e-03  2.2467e-04  7.8924e-05  0:00:38  407
  4013  1.7835e-03  3.8336e-04  1.2086e-04  1.7608e-03  2.2312e-04  7.8655e-05  0:00:31  406

  iter  continuity  x-velocity  y-velocity      energy           k       omega     time/iter
  4014  1.7798e-03  3.7878e-04  1.2190e-04  1.7571e-03  2.2155e-04  7.8371e-05  0:00:24  405
  4015  1.7754e-03  3.6846e-04  1.2369e-04  1.7529e-03  2.1998e-04  7.7979e-05  0:00:19  404
  4016  1.7708e-03  3.6282e-04  1.2456e-04  1.7484e-03  2.1839e-04  7.7691e-05  0:00:16  403
  4017  1.7661e-03  3.5709e-04  1.2394e-04  1.7438e-03  2.1678e-04  7.7516e-05  0:00:12  402
  4018  1.7615e-03  3.4872e-04  1.2191e-04  1.7392e-03  2.1516e-04  7.7335e-05  0:01:30  401
  4019  1.7569e-03  3.5188e-04  1.1969e-04  1.7348e-03  2.1349e-04  7.7108e-05  0:01:12  400
  4020  1.7517e-03  3.5311e-04  1.1536e-04  1.7296e-03  2.1179e-04  7.6826e-05  0:00:57  399
  4021  1.7464e-03  3.5361e-04  1.1227e-04  1.7243e-03  2.1010e-04  7.6497e-05  0:00:46  398
  4022  1.7404e-03  3.3674e-04  1.1052e-04  1.7184e-03  2.0847e-04  7.6101e-05  0:00:37  397
  4023  1.7345e-03  3.3105e-04  1.1153e-04  1.7125e-03  2.0686e-04  7.5864e-05  0:00:29  396
  4024  1.7280e-03  3.2525e-04  1.1307e-04  1.7060e-03  2.0524e-04  7.5662e-05  0:00:23  395

  iter  continuity  x-velocity  y-velocity      energy           k       omega     time/iter
  4025  1.7215e-03  3.2861e-04  1.1289e-04  1.6995e-03  2.0358e-04  7.5447e-05  0:00:19  394
  4026  1.7148e-03  3.3085e-04  1.1206e-04  1.6928e-03  2.0192e-04  7.5270e-05  0:00:15  393
  4027  1.7075e-03  3.2915e-04  1.1062e-04  1.6856e-03  2.0028e-04  7.5088e-05  0:01:30  392
  4028  1.7001e-03  3.3290e-04  1.0968e-04  1.6783e-03  1.9865e-04  7.4927e-05  0:01:12  391
  4029  1.6918e-03  3.2623e-04  1.0850e-04  1.6701e-03  1.9701e-04  7.4823e-05  0:00:57  390
  4030  1.6836e-03  3.2124e-04  1.0816e-04  1.6620e-03  1.9534e-04  7.4689e-05  0:00:46  389
  4031  1.6748e-03  3.1627e-04  1.0788e-04  1.6533e-03  1.9368e-04  7.4499e-05  0:00:37  388
  4032  1.6654e-03  3.0497e-04  1.0662e-04  1.6440e-03  1.9201e-04  7.4260e-05  0:00:29  387
  4033  1.6559e-03  2.9938e-04  1.0540e-04  1.6345e-03  1.9035e-04  7.3974e-05  0:00:23  386
  4034  1.6465e-03  3.0361e-04  1.0563e-04  1.6252e-03  1.8870e-04  7.3603e-05  0:00:19  385
  4035  1.6369e-03  3.0838e-04  1.0627e-04  1.6156e-03  1.8703e-04  7.3217e-05  0:00:15  384

  iter  continuity  x-velocity  y-velocity      energy           k       omega     time/iter
  4036  1.6272e-03  3.1992e-04  1.0701e-04  1.6059e-03  1.8534e-04  7.2867e-05  0:01:28  383
  4037  1.6168e-03  3.2126e-04  1.0619e-04  1.5956e-03  1.8367e-04  7.2586e-05  0:01:11  382
  4038  1.6060e-03  3.1640e-04  1.0572e-04  1.5848e-03  1.8201e-04  7.2344e-05  0:00:56  381
  4039  1.5945e-03  3.0206e-04  1.0556e-04  1.5732e-03  1.8037e-04  7.2111e-05  0:00:45  380
  4040  1.5825e-03  2.8976e-04  1.0519e-04  1.5613e-03  1.7877e-04  7.1854e-05  0:00:36  379
  4041  1.5705e-03  2.8516e-04  1.0307e-04  1.5495e-03  1.7715e-04  7.1594e-05  0:00:29  378
  4042  1.5587e-03  2.8701e-04  1.0098e-04  1.5377e-03  1.7558e-04  7.1289e-05  0:00:23  377
  4043  1.5464e-03  2.8774e-04  9.9708e-05  1.5256e-03  1.7401e-04  7.1021e-05  0:00:18  376
  4044  1.5338e-03  2.9065e-04  9.8109e-05  1.5132e-03  1.7245e-04  7.0775e-05  0:00:15  375
  4045  1.5213e-03  2.9307e-04  9.6899e-05  1.5008e-03  1.7088e-04  7.0482e-05  0:00:12  374
  4046  1.5087e-03  2.9551e-04  9.6160e-05  1.4883e-03  1.6924e-04  7.0173e-05  0:01:24  373

  iter  continuity  x-velocity  y-velocity      energy           k       omega     time/iter
  4047  1.4964e-03  3.0139e-04  9.6587e-05  1.4760e-03  1.6760e-04  6.9889e-05  0:01:07  372
  4048  1.4845e-03  3.1346e-04  9.9473e-05  1.4640e-03  1.6609e-04  6.9674e-05  0:00:53  371
  4049  1.4722e-03  3.1423e-04  1.0399e-04  1.4516e-03  1.6461e-04  6.9481e-05  0:00:43  370
  4050  1.4594e-03  3.1318e-04  1.0815e-04  1.4387e-03  1.6320e-04  6.9327e-05  0:00:34  369
  4051  1.4462e-03  3.1162e-04  1.0953e-04  1.4255e-03  1.6182e-04  6.9210e-05  0:00:27  368
  4052  1.4325e-03  3.0105e-04  1.0916e-04  1.4120e-03  1.6054e-04  6.9083e-05  0:00:22  367
  4053  1.4187e-03  2.8382e-04  1.0626e-04  1.3983e-03  1.5930e-04  6.8954e-05  0:00:17  366
  4054  1.4052e-03  2.7379e-04  1.0514e-04  1.3849e-03  1.5808e-04  6.8810e-05  0:00:14  365
  4055  1.3915e-03  2.6363e-04  1.0323e-04  1.3714e-03  1.5685e-04  6.8622e-05  0:00:11  364
  4056  1.3780e-03  2.6010e-04  1.0202e-04  1.3580e-03  1.5560e-04  6.8408e-05  0:01:21  363
  4057  1.3647e-03  2.5927e-04  1.0065e-04  1.3448e-03  1.5442e-04  6.8158e-05  0:01:05  362

  iter  continuity  x-velocity  y-velocity      energy           k       omega     time/iter
  4058  1.3511e-03  2.5645e-04  9.9749e-05  1.3314e-03  1.5325e-04  6.7895e-05  0:00:52  361
  4059  1.3377e-03  2.5967e-04  9.9195e-05  1.3181e-03  1.5214e-04  6.7534e-05  0:00:41  360
  4060  1.3245e-03  2.6161e-04  9.8078e-05  1.3050e-03  1.5109e-04  6.7392e-05  0:00:33  359
  4061  1.3113e-03  2.7034e-04  9.6758e-05  1.2920e-03  1.5005e-04  6.7241e-05  0:00:26  358
  4062  1.2988e-03  2.7913e-04  9.5550e-05  1.2795e-03  1.4905e-04  6.7052e-05  0:00:21  357
  4063  1.2864e-03  2.8957e-04  9.3568e-05  1.2672e-03  1.4806e-04  6.6849e-05  0:00:17  356
  4064  1.2740e-03  3.0404e-04  9.1792e-05  1.2550e-03  1.4710e-04  6.6626e-05  0:00:13  355
  4065  1.2618e-03  3.1874e-04  8.9946e-05  1.2430e-03  1.4617e-04  6.6346e-05  0:00:11  354
  4066  1.2491e-03  3.2391e-04  8.8448e-05  1.2304e-03  1.4523e-04  6.6027e-05  0:01:19  353
  4067  1.2369e-03  3.2449e-04  8.7699e-05  1.2182e-03  1.4429e-04  6.5729e-05  0:01:03  352
  4068  1.2250e-03  3.3125e-04  8.8336e-05  1.2062e-03  1.4335e-04  6.5382e-05  0:00:50  351

  iter  continuity  x-velocity  y-velocity      energy           k       omega     time/iter
  4069  1.2130e-03  3.4645e-04  8.8607e-05  1.1943e-03  1.4248e-04  6.5044e-05  0:00:40  350
  4070  1.1988e-03  3.3919e-04  8.9383e-05  1.1802e-03  1.4165e-04  6.4764e-05  0:00:32  349
  4071  1.1845e-03  3.3348e-04  9.0871e-05  1.1661e-03  1.4082e-04  6.4536e-05  0:00:26  348
  4072  1.1722e-03  3.5313e-04  9.3687e-05  1.1539e-03  1.4004e-04  6.4353e-05  0:00:20  347
  4073  1.1582e-03  3.3610e-04  9.6995e-05  1.1397e-03  1.3942e-04  6.4136e-05  0:00:16  346
  4074  1.1437e-03  3.2039e-04  9.8346e-05  1.1253e-03  1.3895e-04  6.3913e-05  0:00:13  345
  4075  1.1292e-03  3.1969e-04  9.6252e-05  1.1110e-03  1.3855e-04  6.3728e-05  0:00:10  344
  4076  1.1144e-03  3.1946e-04  9.6802e-05  1.0966e-03  1.3826e-04  6.3534e-05  0:01:17  343
  4077  1.1004e-03  3.0489e-04  9.8384e-05  1.0827e-03  1.3795e-04  6.3324e-05  0:01:01  342
  4078  1.0870e-03  2.9109e-04  9.8410e-05  1.0691e-03  1.3769e-04  6.3037e-05  0:00:49  341
  4079  1.0743e-03  2.9535e-04  1.0455e-04  1.0561e-03  1.3746e-04  6.2766e-05  0:00:39  340

  iter  continuity  x-velocity  y-velocity      energy           k       omega     time/iter
  4080  1.0588e-03  2.8079e-04  1.0982e-04  1.0408e-03  1.3723e-04  6.2458e-05  0:00:31  339
  4081  1.0445e-03  2.7783e-04  1.1084e-04  1.0267e-03  1.3714e-04  6.2209e-05  0:00:25  338
  4082  1.0307e-03  2.7507e-04  1.0709e-04  1.0131e-03  1.3712e-04  6.1971e-05  0:00:20  337
  4083  1.0173e-03  2.7087e-04  1.0271e-04  9.9981e-04  1.3711e-04  6.1767e-05  0:00:16  336
  4084  1.0040e-03  2.6372e-04  9.7443e-05  9.8661e-04  1.3709e-04  6.1544e-05  0:00:13  335
  4085  9.9072e-04  2.5332e-04  9.2821e-05  9.7342e-04  1.3713e-04  6.1293e-05  0:00:10  334
! 4085 solution is converged

> /plot/plot yes loading.txt yes no no absolute-pressure yes 1 0 upper-blade ()

> ;exit yes

> /exit y

Posting ANSYS Product Improvement Program performance data 
Done.
(cx-gui-do cx-activate-item "Question*OK")
