
              Welcome to ANSYS Fluent 2021 R2

              Copyright 1987-2021 ANSYS, Inc. All Rights Reserved.
              Unauthorized use, distribution or duplication is prohibited.
              This product is subject to U.S. laws governing export and re-export.
              For full Legal Notice, see documentation.

Build Time: May 28 2021 13:54:56 EDT  Build Id: 10201  
 

     --------------------------------------------------------------
     This is an academic version of ANSYS FLUENT. Usage of this product
     license is limited to the terms and conditions specified in your ANSYS
     license form, additional terms section.
     --------------------------------------------------------------
Host spawning Node 0 on machine "WL-CH-009" (win64).

-------------------------------------------------------------------------------
ID    Hostname   Core   O.S.         PID    Vendor                       
-------------------------------------------------------------------------------
n31   WL-CH-009  32/36  Windows-x64  33520  Intel(R) Xeon(R) W-2295      
n30   WL-CH-009  31/36  Windows-x64  32460  Intel(R) Xeon(R) W-2295      
n29   WL-CH-009  30/36  Windows-x64  29644  Intel(R) Xeon(R) W-2295      
n28   WL-CH-009  29/36  Windows-x64  30572  Intel(R) Xeon(R) W-2295      
n27   WL-CH-009  28/36  Windows-x64  33164  Intel(R) Xeon(R) W-2295      
n26   WL-CH-009  27/36  Windows-x64  20552  Intel(R) Xeon(R) W-2295      
n25   WL-CH-009  26/36  Windows-x64  15356  Intel(R) Xeon(R) W-2295      
n24   WL-CH-009  25/36  Windows-x64  27504  Intel(R) Xeon(R) W-2295      
n23   WL-CH-009  24/36  Windows-x64  38036  Intel(R) Xeon(R) W-2295      
n22   WL-CH-009  23/36  Windows-x64  22360  Intel(R) Xeon(R) W-2295      
n21   WL-CH-009  22/36  Windows-x64  12376  Intel(R) Xeon(R) W-2295      
n20   WL-CH-009  21/36  Windows-x64  29132  Intel(R) Xeon(R) W-2295      
n19   WL-CH-009  20/36  Windows-x64  34736  Intel(R) Xeon(R) W-2295      
n18   WL-CH-009  19/36  Windows-x64  27072  Intel(R) Xeon(R) W-2295      
n17   WL-CH-009  18/36  Windows-x64  42116  Intel(R) Xeon(R) W-2295      
n16   WL-CH-009  17/36  Windows-x64  31580  Intel(R) Xeon(R) W-2295      
n15   WL-CH-009  16/36  Windows-x64  45608  Intel(R) Xeon(R) W-2295      
n14   WL-CH-009  15/36  Windows-x64  26944  Intel(R) Xeon(R) W-2295      
n13   WL-CH-009  14/36  Windows-x64  42708  Intel(R) Xeon(R) W-2295      
n12   WL-CH-009  13/36  Windows-x64  14288  Intel(R) Xeon(R) W-2295      
-------------------------------------------------------------------------------
ID    Hostname   Core   O.S.         PID    Vendor                       
-------------------------------------------------------------------------------
n11   WL-CH-009  12/36  Windows-x64  35540  Intel(R) Xeon(R) W-2295      
n10   WL-CH-009  11/36  Windows-x64  35716  Intel(R) Xeon(R) W-2295      
n9    WL-CH-009  10/36  Windows-x64  6288   Intel(R) Xeon(R) W-2295      
n8    WL-CH-009  9/36   Windows-x64  34104  Intel(R) Xeon(R) W-2295      
n7    WL-CH-009  8/36   Windows-x64  1176   Intel(R) Xeon(R) W-2295      
n6    WL-CH-009  7/36   Windows-x64  43464  Intel(R) Xeon(R) W-2295      
n5    WL-CH-009  6/36   Windows-x64  44524  Intel(R) Xeon(R) W-2295      
n4    WL-CH-009  5/36   Windows-x64  8776   Intel(R) Xeon(R) W-2295      
n3    WL-CH-009  4/36   Windows-x64  15212  Intel(R) Xeon(R) W-2295      
n2    WL-CH-009  3/36   Windows-x64  39756  Intel(R) Xeon(R) W-2295      
n1    WL-CH-009  2/36   Windows-x64  37832  Intel(R) Xeon(R) W-2295      
n0*   WL-CH-009  1/36   Windows-x64  35380  Intel(R) Xeon(R) W-2295      
host  WL-CH-009         Windows-x64  44812  Intel(R) Xeon(R) W-2295      

MPI Option Selected: intel
Selected system interconnect: default
-------------------------------------------------------------------------------

Cleanup script file is E:\\MATLAB\\RANS_optimisation\\cleanup-fluent-WL-CH-009-44812.bat

Posting ANSYS Product Improvement Program startup data
Done.

Reading journal file E:\MATLAB\RANS_optimisation\run11\fluent_input.jou...

> /sync-chdir E:\MATLAB\RANS_optimisation\run11

> /file/read-case "grid.msh"
Reading "grid.msh"...

Buffering for file scan...

  112722 quadrilateral cells, zone  9.
  224998 2D interior faces, zone  2.
Warning: Reversing 238 faces, zone  2.
     237 2D pressure-inlet faces, zone  3.
Warning: Reversing 237 faces, zone  3.
     477 2D pressure-outlet faces, zone  4.
Warning: Reversing 477 faces, zone  4.
     477 2D pressure-outlet faces, zone  5.
     207 2D pressure-outlet faces, zone  6.
     254 2D wall faces, zone  7.
Warning: Reversing 15 faces, zone  7.
     252 2D wall faces, zone  8.
Warning: Reversing 223 faces, zone  8.
  113674 nodes.

Building...
     mesh
	auto partitioning mesh by Metis (fast),
	distributing mesh
		parts................................,
		faces................................,
		nodes................................,
		cells................................,
        bandwidth reduction using Reverse Cuthill-McKee: 2716/83 = 32.7229
     materials,
     interface,
     domains,
     zones,
	fluid-9
	wall-8
	wall-7
	pressure-outlet-6
	pressure-outlet-5
	pressure-outlet-4
	pressure-inlet-3
	interior-2
     parallel,
Done.

Preparing mesh for display...
Done.
 

> /define/boundary-conditions/modify-zones/zone-name 3 inlet 

> /define/boundary-conditions/modify-zones/zone-name 4 upper 

> /define/boundary-conditions/modify-zones/zone-name 5 lower 

> /define/boundary-conditions/modify-zones/zone-name 6 outlet

> /define/boundary-conditions/modify-zones/zone-name 7 upper-blade

> /define/boundary-conditions/modify-zones/zone-name 8 lower-blade

> /define/materials/change-create air air air is a fluid
yes 
Density
ideal-gas no data required.

yes 
Cp (Specific Heat)
constant 1005 
yes 
Thermal Conductivity
expression "DynamicViscosity*1005 [J/(kg K)]/0.72"
 yes 
Viscosity
sutherland three-coefficient-method 5.83247e-04 273 110.4 
no no no

Note: Enabling energy equation as required by material density method.

> /define/operating-conditions/operating-pressure 0

> /define/models/viscous/kw-sst? yes

> /define/boundary-conditions/zone-type inlet pressure-inlet 

> /define/boundary-conditions/pressure-inlet (inlet)
inlet yes no 74575.2 no 46984 no 300 no yes no no yes 0.5 1

> /define/boundary-conditions/zone-type outlet pressure-outlet 

> /define/boundary-conditions/bc-settings/pressure-outlet 0. 65 

> /define/boundary-conditions/pressure-outlet (outlet upper lower)
outlet yes no 46984 no 300 no yes no no yes 0.5 1 yes no no

> /define/boundary-conditions/copy-bc outlet (upper lower)Copy outlet boundary conditions to lower
Copy outlet boundary conditions to upper


> /define/boundary-conditions/wall (upper-blade lower-blade)
upper-blade 0 no 0 no no no 0 no no no no 0 no 0.5 no 1

> /define/boundary-conditions/copy-bc upper-blade (lower-blade)Copy upper-blade boundary conditions to lower-blade


> /define/models/solver/densit-based-implicit yes

> /file/read-data E:\MATLAB\RANS_optimisation\clean.dat

Reading "E:\MATLAB\RANS_optimisation\clean.dat"...



Parallel variables...
Done.

> ;/solve/initialize/initialize-flow
;/solve/initialize/compute-defaults/pressure-inlet inlet
;/solve/initialize/initialize-flow yes
;/solve/initialize/hyb-initialization
/solve/iterate 2000

  iter  continuity  x-velocity  y-velocity      energy           k       omega     time/iter
  2419  9.9521e-04  3.5719e-04  6.8654e-05  9.7828e-04  1.7105e-04  4.2984e-05  0:00:00 2000
  2420  9.6832e-02  6.9417e-02  5.5325e-02  9.6814e-02  4.1190e-03  1.2510e-02  0:00:00 1999
  2421  9.4809e-02  5.2011e-02  7.0913e-02  9.6388e-02  3.9310e-03  1.0577e-02  0:00:00 1998
  2422  6.8190e-02  3.5736e-02  6.1985e-02  6.9250e-02  3.7259e-03  8.1332e-03  0:00:00 1997
  2423  5.0893e-02  2.6210e-02  5.5184e-02  5.0933e-02  3.5191e-03  6.7074e-03  0:00:00 1996
  2424  3.9856e-02  2.2138e-02  4.5158e-02  3.9215e-02  3.3192e-03  6.1916e-03  0:00:00 1995
  2425  3.2735e-02  2.0029e-02  3.5553e-02  3.1902e-02  3.1301e-03  5.7981e-03  0:33:14 1994
  2426  2.8144e-02  1.8454e-02  2.8141e-02  2.7370e-02  2.9563e-03  5.4174e-03  0:26:34 1993
  2427  2.5635e-02  1.7340e-02  2.2520e-02  2.5043e-02  2.8007e-03  5.0253e-03  0:21:15 1992
  2428  2.4296e-02  1.6252e-02  1.8511e-02  2.3866e-02  2.6662e-03  4.6373e-03  0:16:59 1991
  2429  2.3370e-02  1.5054e-02  1.5856e-02  2.3047e-02  2.5516e-03  4.1750e-03  0:13:35 1990

  iter  continuity  x-velocity  y-velocity      energy           k       omega     time/iter
  2430  2.2472e-02  1.3843e-02  1.4105e-02  2.2207e-02  2.4546e-03  3.7203e-03  0:10:52 1989
  2431  2.1464e-02  1.2672e-02  1.2920e-02  2.1225e-02  2.3710e-03  3.3182e-03  0:08:41 1988
  2432  2.0351e-02  1.1516e-02  1.2086e-02  2.0111e-02  2.3002e-03  3.0192e-03  0:06:57 1987
  2433  1.9179e-02  1.0443e-02  1.1423e-02  1.8919e-02  2.2379e-03  2.7876e-03  0:05:33 1986
  2434  1.8057e-02  9.4138e-03  1.0755e-02  1.7761e-02  2.1788e-03  2.5727e-03  0:04:26 1985
  2435  1.7030e-02  8.5231e-03  9.9656e-03  1.6687e-02  2.1232e-03  2.3990e-03  0:10:10 1984
  2436  1.6186e-02  7.9296e-03  9.2593e-03  1.5792e-02  2.0684e-03  2.2877e-03  0:08:08 1983
  2437  1.5540e-02  7.6054e-03  8.7212e-03  1.5096e-02  2.0144e-03  2.2368e-03  0:06:30 1982
  2438  1.5030e-02  7.4841e-03  8.1856e-03  1.4539e-02  1.9622e-03  2.2269e-03  0:05:12 1981
  2439  1.4634e-02  7.5689e-03  7.6931e-03  1.4105e-02  1.9120e-03  2.2542e-03  0:04:09 1980
  2440  1.4319e-02  7.8028e-03  7.2419e-03  1.3763e-02  1.8640e-03  2.2982e-03  0:03:19 1979

  iter  continuity  x-velocity  y-velocity      energy           k       omega     time/iter
  2441  1.4116e-02  8.1315e-03  6.8290e-03  1.3540e-02  1.8210e-03  2.3487e-03  0:02:39 1978
  2442  1.4014e-02  8.4942e-03  6.4658e-03  1.3428e-02  1.7858e-03  2.3861e-03  0:02:07 1977
  2443  1.4037e-02  8.8450e-03  6.1555e-03  1.3443e-02  1.7581e-03  2.4175e-03  0:01:42 1976
  2444  1.4148e-02  9.1627e-03  5.8731e-03  1.3552e-02  1.7373e-03  2.4355e-03  0:01:21 1975
  2445  1.4379e-02  9.4211e-03  5.6496e-03  1.3784e-02  1.7232e-03  2.4699e-03  0:01:05 1974
  2446  1.4757e-02  9.6085e-03  5.4824e-03  1.4169e-02  1.7151e-03  2.5008e-03  0:07:27 1973
  2447  1.5271e-02  9.7102e-03  5.3762e-03  1.4696e-02  1.7126e-03  2.5163e-03  0:05:57 1972
  2448  1.5948e-02  9.7472e-03  5.2763e-03  1.5391e-02  1.7149e-03  2.5190e-03  0:04:46 1971
  2449  1.6747e-02  9.7255e-03  5.1701e-03  1.6211e-02  1.7203e-03  2.5063e-03  0:03:48 1970
  2450  1.7616e-02  9.6485e-03  5.0815e-03  1.7096e-02  1.7291e-03  2.4805e-03  0:03:03 1969
  2451  1.8516e-02  9.5259e-03  4.9828e-03  1.8015e-02  1.7376e-03  2.4376e-03  0:02:26 1968

  iter  continuity  x-velocity  y-velocity      energy           k       omega     time/iter
  2452  1.9408e-02  9.3751e-03  4.8718e-03  1.8929e-02  1.7475e-03  2.3985e-03  0:01:57 1967
  2453  2.0225e-02  9.2126e-03  4.7115e-03  1.9770e-02  1.7562e-03  2.3501e-03  0:01:33 1966
  2454  2.0949e-02  9.0403e-03  4.5776e-03  2.0514e-02  1.7650e-03  2.3056e-03  0:01:15 1965
  2455  2.1617e-02  8.8738e-03  4.4299e-03  2.1203e-02  1.7757e-03  2.2529e-03  0:01:00 1964
  2456  2.2208e-02  8.7179e-03  4.2677e-03  2.1814e-02  1.7855e-03  2.2138e-03  0:07:20 1963
  2457  2.2698e-02  8.5807e-03  4.1132e-03  2.2326e-02  1.7942e-03  2.1677e-03  0:05:52 1962
  2458  2.3038e-02  8.4667e-03  3.9861e-03  2.2687e-02  1.8037e-03  2.1308e-03  0:04:42 1961
  2459  2.3216e-02  8.3791e-03  3.8312e-03  2.2886e-02  1.8128e-03  2.0908e-03  0:03:45 1960
  2460  2.3241e-02  8.3166e-03  3.6601e-03  2.2928e-02  1.8270e-03  2.0570e-03  0:03:00 1959
  2461  2.3128e-02  8.2739e-03  3.5349e-03  2.2830e-02  1.8353e-03  2.0402e-03  0:02:24 1958
  2462  2.2885e-02  8.2357e-03  3.4502e-03  2.2600e-02  1.8485e-03  2.0191e-03  0:01:55 1957

  iter  continuity  x-velocity  y-velocity      energy           k       omega     time/iter
  2463  2.2564e-02  8.1952e-03  3.3982e-03  2.2292e-02  1.8551e-03  2.0004e-03  0:01:32 1956
  2464  2.2188e-02  8.1633e-03  3.3816e-03  2.1928e-02  1.8699e-03  1.9866e-03  0:01:14 1955
  2465  2.1756e-02  8.1482e-03  3.3625e-03  2.1505e-02  1.8789e-03  1.9715e-03  0:00:59 1954
  2466  2.1251e-02  8.1260e-03  3.3228e-03  2.1006e-02  1.8932e-03  1.9577e-03  0:07:18 1953
  2467  2.0647e-02  8.0843e-03  3.3034e-03  2.0407e-02  1.9027e-03  1.9428e-03  0:05:50 1952
  2468  1.9998e-02  8.0361e-03  3.3249e-03  1.9763e-02  1.9137e-03  1.9236e-03  0:04:40 1951
  2469  1.9302e-02  7.9701e-03  3.3708e-03  1.9067e-02  1.9182e-03  1.9111e-03  0:03:44 1950
  2470  1.8557e-02  7.8841e-03  3.4094e-03  1.8321e-02  1.9244e-03  1.9069e-03  0:02:59 1949
  2471  1.7794e-02  7.7887e-03  3.4496e-03  1.7553e-02  1.9314e-03  1.9055e-03  0:02:23 1948
  2472  1.7059e-02  7.6964e-03  3.4997e-03  1.6817e-02  1.9361e-03  1.9048e-03  0:01:54 1947
  2473  1.6315e-02  7.6113e-03  3.5248e-03  1.6068e-02  1.9375e-03  1.8934e-03  0:01:31 1946

  iter  continuity  x-velocity  y-velocity      energy           k       omega     time/iter
  2474  1.5544e-02  7.5060e-03  3.5066e-03  1.5293e-02  1.9426e-03  1.8742e-03  0:01:13 1945
  2475  1.4790e-02  7.4038e-03  3.4818e-03  1.4535e-02  1.9420e-03  1.8520e-03  0:00:58 1944
  2476  1.4067e-02  7.2936e-03  3.4756e-03  1.3808e-02  1.9404e-03  1.8349e-03  0:00:47 1943
  2477  1.3399e-02  7.1669e-03  3.5058e-03  1.3135e-02  1.9426e-03  1.8222e-03  0:07:06 1942
  2478  1.2792e-02  7.0288e-03  3.5386e-03  1.2527e-02  1.9408e-03  1.8092e-03  0:05:40 1941
  2479  1.2271e-02  6.9058e-03  3.5545e-03  1.2010e-02  1.9353e-03  1.8014e-03  0:04:32 1940
  2480  1.1822e-02  6.7969e-03  3.5523e-03  1.1568e-02  1.9283e-03  1.7883e-03  0:03:38 1939
  2481  1.1428e-02  6.6830e-03  3.4965e-03  1.1184e-02  1.9329e-03  1.7753e-03  0:02:54 1938
  2482  1.1098e-02  6.5692e-03  3.4505e-03  1.0867e-02  1.9329e-03  1.7643e-03  0:02:19 1937
  2483  1.0835e-02  6.4459e-03  3.4308e-03  1.0619e-02  1.9211e-03  1.7454e-03  0:01:51 1936
  2484  1.0610e-02  6.3133e-03  3.4271e-03  1.0403e-02  1.9194e-03  1.7302e-03  0:01:29 1935

  iter  continuity  x-velocity  y-velocity      energy           k       omega     time/iter
  2485  1.0426e-02  6.1814e-03  3.4654e-03  1.0229e-02  1.9249e-03  1.7167e-03  0:01:11 1934
  2486  1.0308e-02  6.0659e-03  3.4232e-03  1.0123e-02  1.9224e-03  1.7093e-03  0:00:57 1933
  2487  1.0237e-02  5.9670e-03  3.3908e-03  1.0066e-02  1.9169e-03  1.7003e-03  0:07:12 1932
  2488  1.0211e-02  5.8646e-03  3.3061e-03  1.0055e-02  1.9167e-03  1.6869e-03  0:05:45 1931
  2489  1.0201e-02  5.7521e-03  3.2492e-03  1.0056e-02  1.9214e-03  1.6770e-03  0:04:36 1930
  2490  1.0209e-02  5.6461e-03  3.1979e-03  1.0068e-02  1.9243e-03  1.6662e-03  0:03:41 1929
  2491  1.0248e-02  5.5400e-03  3.1641e-03  1.0110e-02  1.9274e-03  1.6609e-03  0:02:57 1928
  2492  1.0316e-02  5.4331e-03  3.1502e-03  1.0182e-02  1.9327e-03  1.6546e-03  0:02:21 1927
  2493  1.0407e-02  5.3393e-03  3.0968e-03  1.0278e-02  1.9373e-03  1.6474e-03  0:01:53 1926
  2494  1.0503e-02  5.2575e-03  3.0419e-03  1.0378e-02  1.9437e-03  1.6382e-03  0:01:30 1925
  2495  1.0616e-02  5.1710e-03  2.9553e-03  1.0498e-02  1.9543e-03  1.6307e-03  0:01:12 1924

  iter  continuity  x-velocity  y-velocity      energy           k       omega     time/iter
  2496  1.0712e-02  5.0855e-03  2.8796e-03  1.0594e-02  1.9635e-03  1.6255e-03  0:00:58 1923
  2497  1.0809e-02  5.0125e-03  2.8122e-03  1.0691e-02  1.9723e-03  1.6122e-03  0:00:46 1922
  2498  1.0904e-02  4.9448e-03  2.7638e-03  1.0782e-02  1.9825e-03  1.6018e-03  0:07:01 1921
  2499  1.0992e-02  4.8726e-03  2.7422e-03  1.0870e-02  1.9958e-03  1.5970e-03  0:05:37 1920
  2500  1.1088e-02  4.8124e-03  2.7049e-03  1.0967e-02  2.0084e-03  1.5941e-03  0:04:29 1919
  2501  1.1159e-02  4.7522e-03  2.6241e-03  1.1036e-02  2.0216e-03  1.5854e-03  0:03:35 1918
  2502  1.1228e-02  4.6905e-03  2.5477e-03  1.1108e-02  2.0351e-03  1.5777e-03  0:02:52 1917
  2503  1.1290e-02  4.6362e-03  2.4912e-03  1.1172e-02  2.0508e-03  1.5685e-03  0:02:18 1916
  2504  1.1347e-02  4.5916e-03  2.4421e-03  1.1231e-02  2.0667e-03  1.5604e-03  0:01:50 1915
  2505  1.1382e-02  4.5543e-03  2.3975e-03  1.1266e-02  2.0828e-03  1.5528e-03  0:01:28 1914
  2506  1.1393e-02  4.5186e-03  2.3582e-03  1.1276e-02  2.0960e-03  1.5448e-03  0:01:10 1913

  iter  continuity  x-velocity  y-velocity      energy           k       omega     time/iter
  2507  1.1378e-02  4.4858e-03  2.3305e-03  1.1261e-02  2.1105e-03  1.5366e-03  0:00:56 1912
  2508  1.1359e-02  4.4562e-03  2.2871e-03  1.1243e-02  2.1270e-03  1.5253e-03  0:07:07 1911
  2509  1.1336e-02  4.4233e-03  2.2407e-03  1.1225e-02  2.1418e-03  1.5178e-03  0:05:42 1910
  2510  1.1291e-02  4.3890e-03  2.2074e-03  1.1181e-02  2.1554e-03  1.5126e-03  0:04:33 1909
  2511  1.1231e-02  4.3638e-03  2.1780e-03  1.1121e-02  2.1704e-03  1.5060e-03  0:03:38 1908
  2512  1.1173e-02  4.3446e-03  2.1537e-03  1.1065e-02  2.1852e-03  1.4966e-03  0:02:55 1907
  2513  1.1109e-02  4.3216e-03  2.1265e-03  1.1004e-02  2.2001e-03  1.4825e-03  0:02:20 1906
  2514  1.1043e-02  4.3021e-03  2.1127e-03  1.0944e-02  2.2142e-03  1.4777e-03  0:01:52 1905
  2515  1.0958e-02  4.2867e-03  2.1001e-03  1.0863e-02  2.2293e-03  1.4755e-03  0:07:50 1904
  2516  1.0882e-02  4.2656e-03  2.0654e-03  1.0792e-02  2.2452e-03  1.4695e-03  0:06:16 1903
  2517  1.0816e-02  4.2433e-03  2.0404e-03  1.0732e-02  2.2612e-03  1.4663e-03  0:05:01 1902

  iter  continuity  x-velocity  y-velocity      energy           k       omega     time/iter
  2518  1.0737e-02  4.2292e-03  2.0175e-03  1.0657e-02  2.2765e-03  1.4622e-03  0:04:00 1901
  2519  1.0642e-02  4.2152e-03  2.0029e-03  1.0566e-02  2.2892e-03  1.4561e-03  0:03:12 1900
  2520  1.0505e-02  4.1952e-03  1.9939e-03  1.0429e-02  2.3023e-03  1.4475e-03  0:02:34 1899
  2521  1.0365e-02  4.1751e-03  1.9908e-03  1.0289e-02  2.3152e-03  1.4401e-03  0:02:03 1898
  2522  1.0245e-02  4.1598e-03  1.9894e-03  1.0171e-02  2.3276e-03  1.4324e-03  0:01:38 1897
  2523  1.0138e-02  4.1385e-03  1.9819e-03  1.0068e-02  2.3397e-03  1.4239e-03  0:01:19 1896
  2524  1.0029e-02  4.1189e-03  1.9670e-03  9.9628e-03  2.3493e-03  1.4192e-03  0:01:03 1895
  2525  9.9205e-03  4.0966e-03  1.9387e-03  9.8588e-03  2.3565e-03  1.4141e-03  0:07:09 1894
  2526  9.8124e-03  4.0718e-03  1.9208e-03  9.7534e-03  2.3652e-03  1.4100e-03  0:05:43 1893
  2527  9.7038e-03  4.0567e-03  1.9163e-03  9.6474e-03  2.3732e-03  1.3976e-03  0:04:34 1892
  2528  9.5861e-03  4.0388e-03  1.9132e-03  9.5320e-03  2.3782e-03  1.3858e-03  0:03:39 1891

  iter  continuity  x-velocity  y-velocity      energy           k       omega     time/iter
  2529  9.4658e-03  4.0185e-03  1.9198e-03  9.4149e-03  2.3818e-03  1.3785e-03  0:02:55 1890
  2530  9.3436e-03  3.9913e-03  1.9171e-03  9.2957e-03  2.3859e-03  1.3713e-03  0:02:20 1889
  2531  9.2441e-03  3.9644e-03  1.9100e-03  9.2000e-03  2.3890e-03  1.3611e-03  0:01:52 1888
  2532  9.1487e-03  3.9299e-03  1.8927e-03  9.1079e-03  2.3903e-03  1.3495e-03  0:01:30 1887
  2533  9.0345e-03  3.9017e-03  1.8846e-03  8.9950e-03  2.3912e-03  1.3377e-03  0:01:12 1886
  2534  8.9297e-03  3.8759e-03  1.8890e-03  8.8913e-03  2.3925e-03  1.3269e-03  0:00:57 1885
  2535  8.8440e-03  3.8506e-03  1.8923e-03  8.8087e-03  2.3924e-03  1.3142e-03  0:07:03 1884
  2536  8.7533e-03  3.8328e-03  1.8952e-03  8.7189e-03  2.3920e-03  1.3031e-03  0:05:38 1883
  2537  8.6776e-03  3.8104e-03  1.9026e-03  8.6451e-03  2.3910e-03  1.2899e-03  0:04:30 1882
  2538  8.6008e-03  3.7591e-03  1.9015e-03  8.5699e-03  2.3894e-03  1.2755e-03  0:03:36 1881
  2539  8.5241e-03  3.7241e-03  1.9025e-03  8.4931e-03  2.3870e-03  1.2634e-03  0:02:53 1880

  iter  continuity  x-velocity  y-velocity      energy           k       omega     time/iter
  2540  8.4701e-03  3.6859e-03  1.9003e-03  8.4393e-03  2.3847e-03  1.2515e-03  0:02:18 1879
  2541  8.4428e-03  3.6465e-03  1.8918e-03  8.4123e-03  2.3822e-03  1.2408e-03  0:01:50 1878
  2542  8.4391e-03  3.6138e-03  1.8902e-03  8.4089e-03  2.3784e-03  1.2293e-03  0:01:28 1877
  2543  8.4421e-03  3.5866e-03  1.8890e-03  8.4114e-03  2.3757e-03  1.2187e-03  0:01:11 1876
  2544  8.4563e-03  3.5534e-03  1.8903e-03  8.4244e-03  2.3725e-03  1.2084e-03  0:00:56 1875
  2545  8.4743e-03  3.5213e-03  1.8956e-03  8.4406e-03  2.3687e-03  1.1983e-03  0:00:45 1874
  2546  8.5068e-03  3.4891e-03  1.9059e-03  8.4710e-03  2.3657e-03  1.1868e-03  0:06:51 1873
  2547  8.5615e-03  3.4577e-03  1.9094e-03  8.5242e-03  2.3621e-03  1.1780e-03  0:05:28 1872
  2548  8.6276e-03  3.4291e-03  1.9032e-03  8.5885e-03  2.3593e-03  1.1711e-03  0:04:23 1871
  2549  8.7151e-03  3.3871e-03  1.8934e-03  8.6746e-03  2.3550e-03  1.1632e-03  0:03:30 1870
  2550  8.8028e-03  3.3437e-03  1.8801e-03  8.7599e-03  2.3514e-03  1.1562e-03  0:02:48 1869

  iter  continuity  x-velocity  y-velocity      energy           k       omega     time/iter
  2551  8.8922e-03  3.3072e-03  1.8714e-03  8.8459e-03  2.3486e-03  1.1498e-03  0:02:14 1868
  2552  8.9931e-03  3.2752e-03  1.8640e-03  8.9436e-03  2.3444e-03  1.1407e-03  0:01:47 1867
  2553  9.1086e-03  3.2476e-03  1.8597e-03  9.0563e-03  2.3406e-03  1.1311e-03  0:01:26 1866
  2554  9.2215e-03  3.2182e-03  1.8552e-03  9.1666e-03  2.3364e-03  1.1187e-03  0:01:09 1865
  2555  9.3380e-03  3.1855e-03  1.8490e-03  9.2807e-03  2.3324e-03  1.1066e-03  0:00:55 1864
  2556  9.4589e-03  3.1546e-03  1.8430e-03  9.3996e-03  2.3266e-03  1.0952e-03  0:06:56 1863
  2557  9.5773e-03  3.1298e-03  1.8400e-03  9.5161e-03  2.3207e-03  1.0846e-03  0:05:33 1862
  2558  9.6835e-03  3.1069e-03  1.8372e-03  9.6200e-03  2.3142e-03  1.0749e-03  0:04:26 1861
  2559  9.7806e-03  3.0754e-03  1.8304e-03  9.7149e-03  2.3070e-03  1.0644e-03  0:03:33 1860
  2560  9.8654e-03  3.0343e-03  1.8187e-03  9.7972e-03  2.2987e-03  1.0531e-03  0:02:50 1859
  2561  9.9473e-03  2.9997e-03  1.8105e-03  9.8768e-03  2.2890e-03  1.0431e-03  0:02:16 1858

  iter  continuity  x-velocity  y-velocity      energy           k       omega     time/iter
  2562  1.0028e-02  2.9713e-03  1.8044e-03  9.9556e-03  2.2788e-03  1.0345e-03  0:01:49 1857
  2563  1.0107e-02  2.9401e-03  1.7972e-03  1.0033e-02  2.2681e-03  1.0262e-03  0:01:27 1856
  2564  1.0187e-02  2.9096e-03  1.7797e-03  1.0111e-02  2.2558e-03  1.0173e-03  0:01:10 1855
  2565  1.0268e-02  2.8823e-03  1.7690e-03  1.0191e-02  2.2429e-03  1.0085e-03  0:00:56 1854
  2566  1.0344e-02  2.8557e-03  1.7607e-03  1.0267e-02  2.2292e-03  9.9944e-04  0:06:55 1853
  2567  1.0406e-02  2.8314e-03  1.7488e-03  1.0328e-02  2.2148e-03  9.9010e-04  0:05:32 1852
  2568  1.0440e-02  2.8073e-03  1.7336e-03  1.0362e-02  2.2000e-03  9.8085e-04  0:04:25 1851
  2569  1.0462e-02  2.7850e-03  1.7148e-03  1.0383e-02  2.1838e-03  9.7186e-04  0:03:32 1850
  2570  1.0478e-02  2.7645e-03  1.6980e-03  1.0399e-02  2.1676e-03  9.6326e-04  0:02:50 1849
  2571  1.0494e-02  2.7433e-03  1.6810e-03  1.0416e-02  2.1521e-03  9.5419e-04  0:02:16 1848
  2572  1.0496e-02  2.7227e-03  1.6648e-03  1.0417e-02  2.1375e-03  9.4339e-04  0:01:48 1847

  iter  continuity  x-velocity  y-velocity      energy           k       omega     time/iter
  2573  1.0481e-02  2.7033e-03  1.6430e-03  1.0403e-02  2.1248e-03  9.3344e-04  0:01:27 1846
  2574  1.0455e-02  2.6854e-03  1.6199e-03  1.0377e-02  2.1129e-03  9.2422e-04  0:01:09 1845
  2575  1.0419e-02  2.6687e-03  1.6000e-03  1.0342e-02  2.1014e-03  9.1534e-04  0:00:55 1844
  2576  1.0373e-02  2.6532e-03  1.5758e-03  1.0298e-02  2.0907e-03  9.0642e-04  0:00:44 1843
  2577  1.0319e-02  2.6406e-03  1.5512e-03  1.0246e-02  2.0811e-03  8.9679e-04  0:06:44 1842
  2578  1.0262e-02  2.6301e-03  1.5325e-03  1.0191e-02  2.0722e-03  8.8726e-04  0:05:23 1841
  2579  1.0184e-02  2.6198e-03  1.5104e-03  1.0116e-02  2.0647e-03  8.7867e-04  0:04:18 1840
  2580  1.0092e-02  2.6101e-03  1.4889e-03  1.0027e-02  2.0576e-03  8.7057e-04  0:03:26 1839
  2581  9.9858e-03  2.6022e-03  1.4717e-03  9.9232e-03  2.0508e-03  8.6176e-04  0:02:45 1838
  2582  9.8589e-03  2.5931e-03  1.4549e-03  9.7994e-03  2.0450e-03  8.5390e-04  0:02:12 1837
  2583  9.7120e-03  2.5844e-03  1.4402e-03  9.6555e-03  2.0391e-03  8.4655e-04  0:01:46 1836

  iter  continuity  x-velocity  y-velocity      energy           k       omega     time/iter
  2584  9.5490e-03  2.5761e-03  1.4280e-03  9.4957e-03  2.0336e-03  8.3915e-04  0:01:24 1835
  2585  9.3677e-03  2.5682e-03  1.4204e-03  9.3178e-03  2.0295e-03  8.3139e-04  0:01:07 1834
  2586  9.1652e-03  2.5604e-03  1.4155e-03  9.1186e-03  2.0258e-03  8.2384e-04  0:00:54 1833
  2587  8.9443e-03  2.5521e-03  1.4140e-03  8.9010e-03  2.0227e-03  8.1575e-04  0:00:43 1832
  2588  8.7046e-03  2.5437e-03  1.4157e-03  8.6645e-03  2.0202e-03  8.0805e-04  0:06:41 1831
  2589  8.4481e-03  2.5355e-03  1.4200e-03  8.4111e-03  2.0174e-03  8.0020e-04  0:05:20 1830
  2590  8.1756e-03  2.5262e-03  1.4268e-03  8.1412e-03  2.0154e-03  7.9364e-04  0:04:16 1829
  2591  7.8911e-03  2.5171e-03  1.4363e-03  7.8591e-03  2.0147e-03  7.8758e-04  0:03:25 1828
  2592  7.5991e-03  2.5076e-03  1.4477e-03  7.5689e-03  2.0147e-03  7.8150e-04  0:02:44 1827
  2593  7.2990e-03  2.4978e-03  1.4621e-03  7.2703e-03  2.0147e-03  7.7557e-04  0:02:11 1826
  2594  6.9993e-03  2.4880e-03  1.4786e-03  6.9715e-03  2.0150e-03  7.7023e-04  0:01:45 1825

  iter  continuity  x-velocity  y-velocity      energy           k       omega     time/iter
  2595  6.7061e-03  2.4791e-03  1.4966e-03  6.6785e-03  2.0155e-03  7.6533e-04  0:01:24 1824
  2596  6.4229e-03  2.4709e-03  1.5157e-03  6.3947e-03  2.0168e-03  7.6089e-04  0:01:07 1823
  2597  6.1566e-03  2.4628e-03  1.5340e-03  6.1271e-03  2.0184e-03  7.5668e-04  0:00:54 1822
  2598  5.9178e-03  2.4554e-03  1.5542e-03  5.8860e-03  2.0202e-03  7.5233e-04  0:06:47 1821
  2599  5.7134e-03  2.4471e-03  1.5755e-03  5.6784e-03  2.0219e-03  7.4826e-04  0:05:25 1820
  2600  5.5504e-03  2.4359e-03  1.5963e-03  5.5115e-03  2.0236e-03  7.4416e-04  0:04:20 1819
  2601  5.4345e-03  2.4229e-03  1.6150e-03  5.3911e-03  2.0252e-03  7.3995e-04  0:03:28 1818
  2602  5.3751e-03  2.4092e-03  1.6337e-03  5.3268e-03  2.0268e-03  7.3610e-04  0:02:46 1817
  2603  5.3759e-03  2.3953e-03  1.6507e-03  5.3226e-03  2.0285e-03  7.3183e-04  0:02:13 1816
  2604  5.4353e-03  2.3819e-03  1.6656e-03  5.3772e-03  2.0303e-03  7.2805e-04  0:01:46 1815
  2605  5.5483e-03  2.3672e-03  1.6788e-03  5.4857e-03  2.0317e-03  7.2411e-04  0:01:25 1814

  iter  continuity  x-velocity  y-velocity      energy           k       omega     time/iter
  2606  5.7066e-03  2.3526e-03  1.6895e-03  5.6399e-03  2.0328e-03  7.1987e-04  0:01:08 1813
  2607  5.9004e-03  2.3384e-03  1.6965e-03  5.8303e-03  2.0330e-03  7.1532e-04  0:00:54 1812
  2608  6.1245e-03  2.3229e-03  1.7024e-03  6.0513e-03  2.0330e-03  7.1149e-04  0:06:46 1811
  2609  6.3674e-03  2.3060e-03  1.7064e-03  6.2916e-03  2.0327e-03  7.0704e-04  0:05:24 1810
  2610  6.6192e-03  2.2888e-03  1.7078e-03  6.5413e-03  2.0317e-03  7.0237e-04  0:04:19 1809
  2611  6.8731e-03  2.2710e-03  1.7068e-03  6.7934e-03  2.0302e-03  6.9724e-04  0:03:27 1808
  2612  7.1228e-03  2.2526e-03  1.7033e-03  7.0416e-03  2.0282e-03  6.9189e-04  0:02:46 1807
  2613  7.3624e-03  2.2332e-03  1.6979e-03  7.2799e-03  2.0254e-03  6.8723e-04  0:02:13 1806
  2614  7.5873e-03  2.2132e-03  1.6896e-03  7.5037e-03  2.0217e-03  6.8263e-04  0:01:46 1805
  2615  7.7967e-03  2.1929e-03  1.6787e-03  7.7123e-03  2.0176e-03  6.7714e-04  0:01:25 1804
  2616  7.9880e-03  2.1732e-03  1.6654e-03  7.9029e-03  2.0127e-03  6.7289e-04  0:01:08 1803

  iter  continuity  x-velocity  y-velocity      energy           k       omega     time/iter
  2617  8.1608e-03  2.1538e-03  1.6527e-03  8.0753e-03  2.0069e-03  6.6820e-04  0:00:54 1802
  2618  8.3106e-03  2.1320e-03  1.6385e-03  8.2246e-03  2.0005e-03  6.6346e-04  0:00:43 1801
  2619  8.4335e-03  2.1100e-03  1.6216e-03  8.3473e-03  1.9938e-03  6.5891e-04  0:06:35 1800
  2620  8.5310e-03  2.0897e-03  1.6031e-03  8.4446e-03  1.9867e-03  6.5453e-04  0:05:16 1799
  2621  8.6072e-03  2.0688e-03  1.5826e-03  8.5209e-03  1.9790e-03  6.5031e-04  0:04:12 1798
  2622  8.6633e-03  2.0476e-03  1.5610e-03  8.5770e-03  1.9705e-03  6.4626e-04  0:03:22 1797
  2623  8.7013e-03  2.0254e-03  1.5391e-03  8.6152e-03  1.9616e-03  6.4163e-04  0:02:41 1796
  2624  8.7222e-03  2.0022e-03  1.5158e-03  8.6365e-03  1.9522e-03  6.3743e-04  0:02:09 1795
  2625  8.7278e-03  1.9805e-03  1.4912e-03  8.6426e-03  1.9426e-03  6.3294e-04  0:01:43 1794
  2626  8.7194e-03  1.9602e-03  1.4667e-03  8.6349e-03  1.9322e-03  6.2843e-04  0:01:22 1793
  2627  8.6994e-03  1.9403e-03  1.4425e-03  8.6157e-03  1.9211e-03  6.2473e-04  0:01:06 1792

  iter  continuity  x-velocity  y-velocity      energy           k       omega     time/iter
  2628  8.6684e-03  1.9208e-03  1.4170e-03  8.5856e-03  1.9098e-03  6.1983e-04  0:00:53 1791
  2629  8.6288e-03  1.9020e-03  1.3923e-03  8.5471e-03  1.8985e-03  6.1533e-04  0:06:40 1790
  2630  8.5803e-03  1.8824e-03  1.3684e-03  8.4997e-03  1.8869e-03  6.1113e-04  0:05:20 1789
  2631  8.5198e-03  1.8619e-03  1.3451e-03  8.4405e-03  1.8750e-03  6.0671e-04  0:04:16 1788
  2632  8.4479e-03  1.8416e-03  1.3226e-03  8.3698e-03  1.8628e-03  6.0115e-04  0:03:25 1787
  2633  8.3683e-03  1.8227e-03  1.3008e-03  8.2915e-03  1.8501e-03  5.9709e-04  0:02:44 1786
  2634  8.2821e-03  1.8045e-03  1.2800e-03  8.2066e-03  1.8372e-03  5.9313e-04  0:02:11 1785
  2635  8.1899e-03  1.7870e-03  1.2605e-03  8.1159e-03  1.8241e-03  5.8871e-04  0:01:45 1784
  2636  8.0943e-03  1.7697e-03  1.2419e-03  8.0218e-03  1.8106e-03  5.8392e-04  0:01:24 1783
  2637  7.9946e-03  1.7530e-03  1.2245e-03  7.9238e-03  1.7969e-03  5.7951e-04  0:01:07 1782
  2638  7.8886e-03  1.7370e-03  1.2083e-03  7.8196e-03  1.7829e-03  5.7599e-04  0:00:53 1781

  iter  continuity  x-velocity  y-velocity      energy           k       omega     time/iter
  2639  7.7796e-03  1.7210e-03  1.1939e-03  7.7125e-03  1.7689e-03  5.7268e-04  0:06:39 1780
  2640  7.6676e-03  1.7053e-03  1.1811e-03  7.6024e-03  1.7550e-03  5.6903e-04  0:05:19 1779
  2641  7.5505e-03  1.6883e-03  1.1707e-03  7.4874e-03  1.7408e-03  5.6552e-04  0:04:15 1778
  2642  7.4271e-03  1.6715e-03  1.1620e-03  7.3659e-03  1.7267e-03  5.6214e-04  0:03:24 1777
  2643  7.2969e-03  1.6563e-03  1.1552e-03  7.2378e-03  1.7127e-03  5.5906e-04  0:02:43 1776
  2644  7.1591e-03  1.6422e-03  1.1502e-03  7.1020e-03  1.6988e-03  5.5671e-04  0:02:10 1775
  2645  7.0125e-03  1.6302e-03  1.1467e-03  6.9572e-03  1.6849e-03  5.5439e-04  0:01:44 1774
  2646  6.8561e-03  1.6178e-03  1.1448e-03  6.8026e-03  1.6711e-03  5.5222e-04  0:01:23 1773
  2647  6.6892e-03  1.6048e-03  1.1440e-03  6.6375e-03  1.6577e-03  5.5030e-04  0:07:01 1772
  2648  6.5110e-03  1.5920e-03  1.1440e-03  6.4610e-03  1.6445e-03  5.4859e-04  0:05:37 1771
  2649  6.3218e-03  1.5785e-03  1.1444e-03  6.2732e-03  1.6320e-03  5.4732e-04  0:04:29 1770

  iter  continuity  x-velocity  y-velocity      energy           k       omega     time/iter
  2650  6.1233e-03  1.5650e-03  1.1452e-03  6.0762e-03  1.6198e-03  5.4630e-04  0:03:35 1769
  2651  5.9157e-03  1.5528e-03  1.1461e-03  5.8699e-03  1.6077e-03  5.4552e-04  0:02:52 1768
  2652  5.6992e-03  1.5421e-03  1.1471e-03  5.6545e-03  1.5957e-03  5.4424e-04  0:02:18 1767
  2653  5.4750e-03  1.5315e-03  1.1482e-03  5.4312e-03  1.5837e-03  5.4250e-04  0:01:50 1766
  2654  5.2442e-03  1.5199e-03  1.1489e-03  5.2011e-03  1.5717e-03  5.4186e-04  0:01:28 1765
  2655  5.0097e-03  1.5090e-03  1.1490e-03  4.9671e-03  1.5599e-03  5.4089e-04  0:01:10 1764
  2656  4.7740e-03  1.4991e-03  1.1480e-03  4.7316e-03  1.5481e-03  5.4001e-04  0:00:56 1763
  2657  4.5402e-03  1.4898e-03  1.1458e-03  4.4978e-03  1.5365e-03  5.3882e-04  0:06:37 1762
  2658  4.3114e-03  1.4811e-03  1.1423e-03  4.2686e-03  1.5249e-03  5.3642e-04  0:05:18 1761
  2659  4.0934e-03  1.4730e-03  1.1375e-03  4.0499e-03  1.5132e-03  5.3540e-04  0:04:14 1760
  2660  3.8891e-03  1.4641e-03  1.1316e-03  3.8445e-03  1.5022e-03  5.3449e-04  0:03:23 1759

  iter  continuity  x-velocity  y-velocity      energy           k       omega     time/iter
  2661  3.7023e-03  1.4556e-03  1.1241e-03  3.6563e-03  1.4916e-03  5.3348e-04  0:02:42 1758
  2662  3.5372e-03  1.4468e-03  1.1151e-03  3.4894e-03  1.4818e-03  5.3271e-04  0:02:10 1757
  2663  3.3963e-03  1.4387e-03  1.1045e-03  3.3464e-03  1.4720e-03  5.3128e-04  0:01:44 1756
  2664  3.2823e-03  1.4296e-03  1.0922e-03  3.2303e-03  1.4626e-03  5.2974e-04  0:01:23 1755
  2665  3.1979e-03  1.4202e-03  1.0784e-03  3.1436e-03  1.4536e-03  5.2962e-04  0:01:06 1754
  2666  3.1419e-03  1.4094e-03  1.0635e-03  3.0855e-03  1.4453e-03  5.2869e-04  0:00:53 1753
  2667  3.1138e-03  1.3989e-03  1.0472e-03  3.0555e-03  1.4377e-03  5.2766e-04  0:06:33 1752
  2668  3.1138e-03  1.3908e-03  1.0317e-03  3.0539e-03  1.4311e-03  5.2731e-04  0:05:14 1751
  2669  3.1380e-03  1.3841e-03  1.0164e-03  3.0767e-03  1.4246e-03  5.2676e-04  0:04:11 1750
  2670  3.1820e-03  1.3801e-03  9.9797e-04  3.1197e-03  1.4185e-03  5.2620e-04  0:03:21 1749
  2671  3.2421e-03  1.3764e-03  9.7696e-04  3.1791e-03  1.4129e-03  5.2566e-04  0:02:41 1748

  iter  continuity  x-velocity  y-velocity      energy           k       omega     time/iter
  2672  3.3140e-03  1.3714e-03  9.5524e-04  3.2505e-03  1.4072e-03  5.2519e-04  0:02:08 1747
  2673  3.3924e-03  1.3635e-03  9.3345e-04  3.3284e-03  1.4021e-03  5.2452e-04  0:01:43 1746
  2674  3.4746e-03  1.3552e-03  9.1209e-04  3.4106e-03  1.3973e-03  5.2349e-04  0:01:22 1745
  2675  3.5574e-03  1.3498e-03  8.9031e-04  3.4934e-03  1.3931e-03  5.2294e-04  0:01:06 1744
  2676  3.6375e-03  1.3450e-03  8.6848e-04  3.5738e-03  1.3898e-03  5.2287e-04  0:00:52 1743
  2677  3.7125e-03  1.3401e-03  8.4679e-04  3.6490e-03  1.3871e-03  5.2264e-04  0:06:30 1742
  2678  3.7810e-03  1.3359e-03  8.2531e-04  3.7180e-03  1.3853e-03  5.2237e-04  0:05:12 1741
  2679  3.8419e-03  1.3344e-03  8.0426e-04  3.7794e-03  1.3842e-03  5.2201e-04  0:04:10 1740
  2680  3.8946e-03  1.3334e-03  7.8359e-04  3.8327e-03  1.3839e-03  5.2170e-04  0:03:20 1739
  2681  3.9385e-03  1.3311e-03  7.6378e-04  3.8772e-03  1.3842e-03  5.2120e-04  0:02:40 1738
  2682  3.9731e-03  1.3293e-03  7.4676e-04  3.9125e-03  1.3854e-03  5.2054e-04  0:02:08 1737

  iter  continuity  x-velocity  y-velocity      energy           k       omega     time/iter
  2683  3.9979e-03  1.3276e-03  7.3078e-04  3.9380e-03  1.3871e-03  5.1987e-04  0:01:42 1736
  2684  4.0135e-03  1.3268e-03  7.1552e-04  3.9544e-03  1.3897e-03  5.1925e-04  0:01:22 1735
  2685  4.0204e-03  1.3273e-03  7.0063e-04  3.9620e-03  1.3928e-03  5.1852e-04  0:01:05 1734
  2686  4.0196e-03  1.3274e-03  6.8582e-04  3.9619e-03  1.3966e-03  5.1753e-04  0:00:52 1733
  2687  4.0115e-03  1.3275e-03  6.7234e-04  3.9546e-03  1.4011e-03  5.1635e-04  0:00:42 1732
  2688  3.9964e-03  1.3274e-03  6.6056e-04  3.9401e-03  1.4060e-03  5.1537e-04  0:06:20 1731
  2689  3.9741e-03  1.3266e-03  6.5040e-04  3.9185e-03  1.4113e-03  5.1406e-04  0:05:03 1730
  2690  3.9462e-03  1.3255e-03  6.4173e-04  3.8914e-03  1.4167e-03  5.1269e-04  0:04:03 1729
  2691  3.9138e-03  1.3239e-03  6.3424e-04  3.8596e-03  1.4219e-03  5.1140e-04  0:03:14 1728
  2692  3.8782e-03  1.3231e-03  6.2787e-04  3.8247e-03  1.4266e-03  5.0998e-04  0:02:35 1727
  2693  3.8409e-03  1.3237e-03  6.2272e-04  3.7879e-03  1.4311e-03  5.0866e-04  0:02:04 1726

  iter  continuity  x-velocity  y-velocity      energy           k       omega     time/iter
  2694  3.8025e-03  1.3231e-03  6.1886e-04  3.7500e-03  1.4352e-03  5.0751e-04  0:01:39 1725
  2695  3.7646e-03  1.3232e-03  6.1605e-04  3.7126e-03  1.4390e-03  5.0623e-04  0:01:19 1724
  2696  3.7284e-03  1.3233e-03  6.1464e-04  3.6767e-03  1.4424e-03  5.0508e-04  0:01:03 1723
  2697  3.6948e-03  1.3232e-03  6.1343e-04  3.6435e-03  1.4457e-03  5.0378e-04  0:00:51 1722
  2698  3.6661e-03  1.3239e-03  6.1256e-04  3.6151e-03  1.4487e-03  5.0288e-04  0:06:25 1721
  2699  3.6432e-03  1.3229e-03  6.1195e-04  3.5925e-03  1.4514e-03  5.0210e-04  0:05:08 1720
  2700  3.6272e-03  1.3207e-03  6.1169e-04  3.5767e-03  1.4540e-03  5.0109e-04  0:04:06 1719
  2701  3.6195e-03  1.3192e-03  6.1151e-04  3.5692e-03  1.4567e-03  5.0013e-04  0:03:17 1718
  2702  3.6209e-03  1.3173e-03  6.1100e-04  3.5707e-03  1.4594e-03  4.9929e-04  0:02:37 1717
  2703  3.6317e-03  1.3149e-03  6.1035e-04  3.5816e-03  1.4619e-03  4.9860e-04  0:02:06 1716
  2704  3.6519e-03  1.3094e-03  6.0971e-04  3.6019e-03  1.4643e-03  4.9795e-04  0:01:40 1715

  iter  continuity  x-velocity  y-velocity      energy           k       omega     time/iter
  2705  3.6815e-03  1.3045e-03  6.0919e-04  3.6316e-03  1.4666e-03  4.9727e-04  0:01:20 1714
  2706  3.7199e-03  1.3002e-03  6.0828e-04  3.6700e-03  1.4687e-03  4.9644e-04  0:01:04 1713
  2707  3.7657e-03  1.2959e-03  6.0675e-04  3.7159e-03  1.4708e-03  4.9539e-04  0:06:34 1712
  2708  3.8174e-03  1.2917e-03  6.0438e-04  3.7676e-03  1.4725e-03  4.9434e-04  0:05:15 1711
  2709  3.8735e-03  1.2874e-03  6.0179e-04  3.8237e-03  1.4739e-03  4.9319e-04  0:04:12 1710
  2710  3.9317e-03  1.2829e-03  5.9880e-04  3.8819e-03  1.4751e-03  4.9210e-04  0:03:21 1709
  2711  3.9902e-03  1.2782e-03  5.9536e-04  3.9403e-03  1.4761e-03  4.9105e-04  0:02:41 1708
  2712  4.0464e-03  1.2729e-03  5.9146e-04  3.9965e-03  1.4768e-03  4.8966e-04  0:02:09 1707
  2713  4.0982e-03  1.2673e-03  5.8748e-04  4.0483e-03  1.4772e-03  4.8811e-04  0:01:43 1706
  2714  4.1443e-03  1.2618e-03  5.8346e-04  4.0944e-03  1.4774e-03  4.8677e-04  0:01:22 1705
  2715  4.1827e-03  1.2568e-03  5.7937e-04  4.1328e-03  1.4772e-03  4.8523e-04  0:01:06 1704

  iter  continuity  x-velocity  y-velocity      energy           k       omega     time/iter
  2716  4.2120e-03  1.2513e-03  5.7537e-04  4.1621e-03  1.4767e-03  4.8377e-04  0:00:53 1703
  2717  4.2314e-03  1.2459e-03  5.7053e-04  4.1813e-03  1.4760e-03  4.8197e-04  0:06:22 1702
  2718  4.2399e-03  1.2402e-03  5.6594e-04  4.1898e-03  1.4750e-03  4.8004e-04  0:05:06 1701
  2719  4.2372e-03  1.2343e-03  5.6121e-04  4.1869e-03  1.4737e-03  4.7801e-04  0:04:04 1700
  2720  4.2226e-03  1.2280e-03  5.5658e-04  4.1722e-03  1.4720e-03  4.7618e-04  0:03:15 1699
  2721  4.1961e-03  1.2218e-03  5.5231e-04  4.1456e-03  1.4700e-03  4.7419e-04  0:02:36 1698
  2722  4.1578e-03  1.2163e-03  5.4835e-04  4.1071e-03  1.4679e-03  4.7196e-04  0:02:05 1697
  2723  4.1083e-03  1.2114e-03  5.4451e-04  4.0574e-03  1.4653e-03  4.6985e-04  0:01:40 1696
  2724  4.0490e-03  1.2071e-03  5.4075e-04  3.9977e-03  1.4626e-03  4.6782e-04  0:01:20 1695
  2725  3.9809e-03  1.2045e-03  5.3742e-04  3.9293e-03  1.4597e-03  4.6579e-04  0:01:04 1694
  2726  3.9053e-03  1.2044e-03  5.3412e-04  3.8532e-03  1.4565e-03  4.6363e-04  0:00:51 1693

  iter  continuity  x-velocity  y-velocity      energy           k       omega     time/iter
  2727  3.8240e-03  1.2041e-03  5.3085e-04  3.7715e-03  1.4532e-03  4.6140e-04  0:06:19 1692
  2728  3.7388e-03  1.2015e-03  5.2748e-04  3.6857e-03  1.4499e-03  4.5912e-04  0:05:03 1691
  2729  3.6512e-03  1.1975e-03  5.2334e-04  3.5976e-03  1.4464e-03  4.5669e-04  0:04:02 1690
  2730  3.5635e-03  1.1942e-03  5.1946e-04  3.5094e-03  1.4431e-03  4.5436e-04  0:03:14 1689
  2731  3.4767e-03  1.1898e-03  5.1603e-04  3.4222e-03  1.4395e-03  4.5225e-04  0:02:35 1688
  2732  3.3929e-03  1.1842e-03  5.1296e-04  3.3379e-03  1.4360e-03  4.5021e-04  0:02:04 1687
  2733  3.3141e-03  1.1779e-03  5.0958e-04  3.2586e-03  1.4323e-03  4.4825e-04  0:01:39 1686
  2734  3.2419e-03  1.1728e-03  5.0600e-04  3.1859e-03  1.4285e-03  4.4625e-04  0:01:19 1685
  2735  3.1772e-03  1.1673e-03  5.0250e-04  3.1209e-03  1.4244e-03  4.4412e-04  0:01:03 1684
  2736  3.1203e-03  1.1524e-03  4.9843e-04  3.0639e-03  1.4199e-03  4.4191e-04  0:00:51 1683
  2737  3.0721e-03  1.1427e-03  4.9449e-04  3.0157e-03  1.4150e-03  4.4000e-04  0:06:17 1682

  iter  continuity  x-velocity  y-velocity      energy           k       omega     time/iter
  2738  3.0332e-03  1.1365e-03  4.9070e-04  2.9768e-03  1.4098e-03  4.3802e-04  0:05:01 1681
  2739  3.0032e-03  1.1307e-03  4.8690e-04  2.9471e-03  1.4042e-03  4.3611e-04  0:04:01 1680
  2740  2.9818e-03  1.1278e-03  4.8312e-04  2.9262e-03  1.3982e-03  4.3427e-04  0:03:13 1679
  2741  2.9678e-03  1.1252e-03  4.7918e-04  2.9127e-03  1.3918e-03  4.3242e-04  0:02:34 1678
  2742  2.9597e-03  1.1226e-03  4.7542e-04  2.9052e-03  1.3849e-03  4.3066e-04  0:02:03 1677
  2743  2.9561e-03  1.1185e-03  4.7200e-04  2.9023e-03  1.3778e-03  4.2911e-04  0:01:38 1676
  2744  2.9556e-03  1.1163e-03  4.6882e-04  2.9024e-03  1.3702e-03  4.2746e-04  0:01:19 1675
  2745  2.9571e-03  1.1160e-03  4.6561e-04  2.9046e-03  1.3623e-03  4.2605e-04  0:01:03 1674
  2746  2.9595e-03  1.1170e-03  4.6275e-04  2.9078e-03  1.3540e-03  4.2476e-04  0:00:50 1673
  2747  2.9616e-03  1.1183e-03  4.6029e-04  2.9106e-03  1.3451e-03  4.2380e-04  0:00:40 1672
  2748  2.9623e-03  1.1186e-03  4.5763e-04  2.9120e-03  1.3359e-03  4.2311e-04  0:06:06 1671

  iter  continuity  x-velocity  y-velocity      energy           k       omega     time/iter
  2749  2.9606e-03  1.1197e-03  4.5588e-04  2.9110e-03  1.3262e-03  4.2227e-04  0:04:53 1670
  2750  2.9549e-03  1.1107e-03  4.5419e-04  2.9058e-03  1.3160e-03  4.2128e-04  0:03:54 1669
  2751  2.9452e-03  1.1026e-03  4.5253e-04  2.8965e-03  1.3052e-03  4.2013e-04  0:03:07 1668
  2752  2.9317e-03  1.1011e-03  4.5130e-04  2.8832e-03  1.2940e-03  4.1860e-04  0:02:30 1667
  2753  2.9146e-03  1.1042e-03  4.5038e-04  2.8663e-03  1.2823e-03  4.1752e-04  0:02:00 1666
  2754  2.8940e-03  1.1132e-03  4.5028e-04  2.8456e-03  1.2702e-03  4.1699e-04  0:01:36 1665
  2755  2.8685e-03  1.1172e-03  4.5011e-04  2.8201e-03  1.2576e-03  4.1655e-04  0:01:17 1664
  2756  2.8402e-03  1.1244e-03  4.5049e-04  2.7915e-03  1.2445e-03  4.1667e-04  0:01:01 1663
  2757  2.8104e-03  1.1431e-03  4.5111e-04  2.7614e-03  1.2311e-03  4.1678e-04  0:00:49 1662
  2758  2.7757e-03  1.1381e-03  4.5219e-04  2.7265e-03  1.2174e-03  4.1675e-04  0:06:11 1661
  2759  2.7361e-03  1.1132e-03  4.5280e-04  2.6870e-03  1.2035e-03  4.1672e-04  0:04:57 1660

  iter  continuity  x-velocity  y-velocity      energy           k       omega     time/iter
  2760  2.6982e-03  1.1096e-03  4.5256e-04  2.6492e-03  1.1894e-03  4.1716e-04  0:03:57 1659
  2761  2.6596e-03  1.1055e-03  4.5290e-04  2.6105e-03  1.1750e-03  4.1734e-04  0:03:10 1658
  2762  2.6218e-03  1.1011e-03  4.5314e-04  2.5724e-03  1.1604e-03  4.1811e-04  0:02:32 1657
  2763  2.5865e-03  1.1007e-03  4.5298e-04  2.5364e-03  1.1457e-03  4.1896e-04  0:02:01 1656
  2764  2.5543e-03  1.1020e-03  4.5287e-04  2.5034e-03  1.1310e-03  4.1998e-04  0:01:37 1655
  2765  2.5244e-03  1.0957e-03  4.5319e-04  2.4726e-03  1.1161e-03  4.2070e-04  0:01:18 1654
  2766  2.4992e-03  1.0935e-03  4.5382e-04  2.4463e-03  1.1010e-03  4.2159e-04  0:01:02 1653
  2767  2.4790e-03  1.0943e-03  4.5438e-04  2.4250e-03  1.0859e-03  4.2232e-04  0:00:50 1652
  2768  2.4651e-03  1.0986e-03  4.5405e-04  2.4099e-03  1.0709e-03  4.2311e-04  0:06:10 1651
  2769  2.4574e-03  1.0996e-03  4.5378e-04  2.4009e-03  1.0560e-03  4.2355e-04  0:04:56 1650
  2770  2.4572e-03  1.1048e-03  4.5339e-04  2.3993e-03  1.0411e-03  4.2435e-04  0:03:56 1649

  iter  continuity  x-velocity  y-velocity      energy           k       omega     time/iter
  2771  2.4637e-03  1.1121e-03  4.5285e-04  2.4044e-03  1.0265e-03  4.2521e-04  0:03:09 1648
  2772  2.4765e-03  1.1219e-03  4.5276e-04  2.4159e-03  1.0126e-03  4.2582e-04  0:02:31 1647
  2773  2.4960e-03  1.1320e-03  4.5203e-04  2.4340e-03  9.9914e-04  4.2713e-04  0:02:01 1646
  2774  2.5215e-03  1.1416e-03  4.5082e-04  2.4580e-03  9.8614e-04  4.2802e-04  0:01:37 1645
  2775  2.5527e-03  1.1539e-03  4.4937e-04  2.4878e-03  9.7368e-04  4.2861e-04  0:01:17 1644
  2776  2.5883e-03  1.1627e-03  4.4707e-04  2.5220e-03  9.6184e-04  4.2834e-04  0:01:02 1643
  2777  2.6272e-03  1.1716e-03  4.4579e-04  2.5595e-03  9.5097e-04  4.2852e-04  0:00:49 1642
  2778  2.6686e-03  1.1786e-03  4.4413e-04  2.5998e-03  9.4074e-04  4.2902e-04  0:06:08 1641
  2779  2.7115e-03  1.1793e-03  4.4235e-04  2.6419e-03  9.3100e-04  4.2923e-04  0:04:54 1640
  2780  2.7584e-03  1.1855e-03  4.4069e-04  2.6876e-03  9.2183e-04  4.2921e-04  0:03:55 1639
  2781  2.8069e-03  1.1939e-03  4.3882e-04  2.7351e-03  9.1349e-04  4.2901e-04  0:03:08 1638

  iter  continuity  x-velocity  y-velocity      energy           k       omega     time/iter
  2782  2.8568e-03  1.2052e-03  4.3746e-04  2.7839e-03  9.0598e-04  4.2900e-04  0:02:30 1637
  2783  2.9086e-03  1.2297e-03  4.3616e-04  2.8347e-03  8.9921e-04  4.2920e-04  0:02:00 1636
  2784  2.9601e-03  1.2346e-03  4.3322e-04  2.8851e-03  8.9297e-04  4.2905e-04  0:01:36 1635
  2785  3.0128e-03  1.2436e-03  4.3195e-04  2.9365e-03  8.8705e-04  4.2860e-04  0:06:44 1634
  2786  3.0651e-03  1.2508e-03  4.3135e-04  2.9873e-03  8.8133e-04  4.2810e-04  0:05:23 1633
  2787  3.1183e-03  1.2555e-03  4.2930e-04  3.0386e-03  8.7580e-04  4.2762e-04  0:04:18 1632
  2788  3.1710e-03  1.2764e-03  4.2801e-04  3.0897e-03  8.7031e-04  4.2665e-04  0:03:26 1631
  2789  3.2110e-03  1.2157e-03  4.2284e-04  3.1290e-03  8.6493e-04  4.2554e-04  0:02:45 1630
  2790  3.2557e-03  1.1897e-03  4.1834e-04  3.1731e-03  8.5955e-04  4.2440e-04  0:02:12 1629
  2791  3.3006e-03  1.1848e-03  4.1624e-04  3.2171e-03  8.5425e-04  4.2314e-04  0:01:45 1628
  2792  3.3446e-03  1.1859e-03  4.1531e-04  3.2599e-03  8.4906e-04  4.2186e-04  0:01:24 1627

  iter  continuity  x-velocity  y-velocity      energy           k       omega     time/iter
  2793  3.3875e-03  1.1911e-03  4.1260e-04  3.3014e-03  8.4400e-04  4.2059e-04  0:01:07 1626
  2794  3.4280e-03  1.1885e-03  4.0960e-04  3.3404e-03  8.3898e-04  4.1911e-04  0:00:54 1625
  2795  3.4667e-03  1.1872e-03  4.0810e-04  3.3776e-03  8.3398e-04  4.1674e-04  0:06:08 1624
  2796  3.5033e-03  1.1890e-03  4.0847e-04  3.4126e-03  8.2895e-04  4.1418e-04  0:04:54 1623
  2797  3.5377e-03  1.1867e-03  4.0731e-04  3.4457e-03  8.2396e-04  4.1267e-04  0:03:55 1622
  2798  3.5707e-03  1.1891e-03  4.0649e-04  3.4775e-03  8.1897e-04  4.1093e-04  0:03:08 1621
  2799  3.6009e-03  1.1782e-03  4.0820e-04  3.5061e-03  8.1408e-04  4.0896e-04  0:02:30 1620
  2800  3.6300e-03  1.1784e-03  4.0908e-04  3.5336e-03  8.0937e-04  4.0694e-04  0:02:00 1619
  2801  3.6574e-03  1.1790e-03  4.0937e-04  3.5596e-03  8.0484e-04  4.0491e-04  0:01:36 1618
  2802  3.6832e-03  1.1766e-03  4.0919e-04  3.5840e-03  8.0053e-04  4.0263e-04  0:01:17 1617
  2803  3.7070e-03  1.1725e-03  4.1082e-04  3.6065e-03  7.9650e-04  4.0022e-04  0:01:01 1616

  iter  continuity  x-velocity  y-velocity      energy           k       omega     time/iter
  2804  3.7295e-03  1.1708e-03  4.1098e-04  3.6277e-03  7.9293e-04  3.9777e-04  0:00:49 1615
  2805  3.7501e-03  1.1615e-03  4.1012e-04  3.6470e-03  7.8975e-04  3.9543e-04  0:06:02 1614
  2806  3.7703e-03  1.1576e-03  4.1045e-04  3.6659e-03  7.8684e-04  3.9303e-04  0:04:49 1613
  2807  3.7899e-03  1.1656e-03  4.1301e-04  3.6843e-03  7.8424e-04  3.9069e-04  0:03:51 1612
  2808  3.8082e-03  1.1706e-03  4.1081e-04  3.7015e-03  7.8192e-04  3.8822e-04  0:03:05 1611
  2809  3.8271e-03  1.1909e-03  4.1280e-04  3.7190e-03  7.7988e-04  3.8576e-04  0:02:28 1610
  2810  3.8444e-03  1.1753e-03  4.1468e-04  3.7348e-03  7.7816e-04  3.8317e-04  0:01:58 1609
  2811  3.8645e-03  1.1984e-03  4.1652e-04  3.7530e-03  7.7685e-04  3.8030e-04  0:01:35 1608
  2812  3.8819e-03  1.2151e-03  4.1776e-04  3.7682e-03  7.7578e-04  3.7761e-04  0:01:16 1607
  2813  3.8920e-03  1.1971e-03  4.1694e-04  3.7770e-03  7.7497e-04  3.7514e-04  0:01:00 1606
  2814  3.8970e-03  1.1214e-03  4.1456e-04  3.7816e-03  7.7448e-04  3.7230e-04  0:06:09 1605

  iter  continuity  x-velocity  y-velocity      energy           k       omega     time/iter
  2815  3.9058e-03  1.1065e-03  4.1458e-04  3.7898e-03  7.7426e-04  3.6953e-04  0:04:55 1604
  2816  3.9143e-03  1.1008e-03  4.1430e-04  3.7977e-03  7.7442e-04  3.6683e-04  0:03:56 1603
  2817  3.9220e-03  1.1009e-03  4.1333e-04  3.8042e-03  7.7509e-04  3.6396e-04  0:03:09 1602
  2818  3.9280e-03  1.0857e-03  4.1349e-04  3.8089e-03  7.7613e-04  3.6104e-04  0:02:31 1601
  2819  3.9334e-03  1.0711e-03  4.1384e-04  3.8130e-03  7.7746e-04  3.5820e-04  0:02:01 1600
  2820  3.9386e-03  1.0630e-03  4.1496e-04  3.8169e-03  7.7901e-04  3.5552e-04  0:01:36 1599
  2821  3.9438e-03  1.0637e-03  4.1248e-04  3.8211e-03  7.8063e-04  3.5304e-04  0:01:17 1598
  2822  3.9499e-03  1.0900e-03  4.1289e-04  3.8259e-03  7.8226e-04  3.5079e-04  0:01:02 1597
  2823  3.9539e-03  1.1063e-03  4.1611e-04  3.8285e-03  7.8391e-04  3.4892e-04  0:00:49 1596
  2824  3.9551e-03  1.1041e-03  4.1647e-04  3.8288e-03  7.8560e-04  3.4714e-04  0:05:58 1595
  2825  3.9543e-03  1.0751e-03  4.1606e-04  3.8273e-03  7.8729e-04  3.4561e-04  0:04:47 1594

  iter  continuity  x-velocity  y-velocity      energy           k       omega     time/iter
  2826  3.9543e-03  1.0539e-03  4.1437e-04  3.8267e-03  7.8904e-04  3.4396e-04  0:03:49 1593
  2827  3.9532e-03  1.0486e-03  4.1288e-04  3.8250e-03  7.9093e-04  3.4225e-04  0:03:03 1592
  2828  3.9508e-03  1.0375e-03  4.1050e-04  3.8224e-03  7.9283e-04  3.4065e-04  0:02:26 1591
  2829  3.9505e-03  1.0391e-03  4.1131e-04  3.8218e-03  7.9473e-04  3.3948e-04  0:01:57 1590
  2830  3.9498e-03  1.0393e-03  4.1166e-04  3.8208e-03  7.9659e-04  3.3856e-04  0:01:34 1589
  2831  3.9508e-03  1.0493e-03  4.1278e-04  3.8214e-03  7.9842e-04  3.3811e-04  0:01:15 1588
  2832  3.9531e-03  1.0702e-03  4.1356e-04  3.8232e-03  8.0028e-04  3.3769e-04  0:01:00 1587
  2833  3.9527e-03  1.0746e-03  4.1427e-04  3.8222e-03  8.0225e-04  3.3729e-04  0:00:48 1586
  2834  3.9541e-03  1.0641e-03  4.1700e-04  3.8232e-03  8.0418e-04  3.3694e-04  0:00:38 1585
  2835  3.9581e-03  1.0812e-03  4.2230e-04  3.8261e-03  8.0610e-04  3.3658e-04  0:05:47 1584
  2836  3.9615e-03  1.1017e-03  4.2340e-04  3.8287e-03  8.0796e-04  3.3609e-04  0:04:38 1583

  iter  continuity  x-velocity  y-velocity      energy           k       omega     time/iter
  2837  3.9557e-03  1.0490e-03  4.2216e-04  3.8230e-03  8.0977e-04  3.3572e-04  0:03:42 1582
  2838  3.9504e-03  9.8661e-04  4.2000e-04  3.8183e-03  8.1148e-04  3.3554e-04  0:02:58 1581
  2839  3.9487e-03  9.7677e-04  4.1756e-04  3.8170e-03  8.1314e-04  3.3522e-04  0:02:22 1580
  2840  3.9473e-03  9.6891e-04  4.1432e-04  3.8157e-03  8.1469e-04  3.3523e-04  0:01:53 1579
  2841  3.9461e-03  9.6648e-04  4.1237e-04  3.8144e-03  8.1624e-04  3.3523e-04  0:01:31 1578
  2842  3.9448e-03  9.6423e-04  4.1125e-04  3.8130e-03  8.1774e-04  3.3478e-04  0:01:13 1577
  2843  3.9439e-03  9.6504e-04  4.0669e-04  3.8120e-03  8.1921e-04  3.3445e-04  0:00:58 1576
  2844  3.9422e-03  9.6835e-04  4.0510e-04  3.8102e-03  8.2057e-04  3.3413e-04  0:00:46 1575
  2845  3.9395e-03  9.6424e-04  4.0498e-04  3.8073e-03  8.2191e-04  3.3404e-04  0:05:52 1574
  2846  3.9367e-03  9.7351e-04  4.0343e-04  3.8044e-03  8.2316e-04  3.3383e-04  0:04:41 1573
  2847  3.9329e-03  9.8277e-04  4.0129e-04  3.8007e-03  8.2451e-04  3.3333e-04  0:03:45 1572

  iter  continuity  x-velocity  y-velocity      energy           k       omega     time/iter
  2848  3.9278e-03  9.7903e-04  4.0067e-04  3.7958e-03  8.2592e-04  3.3308e-04  0:03:00 1571
  2849  3.9235e-03  9.7844e-04  4.0108e-04  3.7916e-03  8.2752e-04  3.3310e-04  0:02:24 1570
  2850  3.9178e-03  9.8429e-04  4.0229e-04  3.7863e-03  8.2919e-04  3.3315e-04  0:01:55 1569
  2851  3.9127e-03  9.9511e-04  4.0372e-04  3.7813e-03  8.3084e-04  3.3325e-04  0:01:32 1568
  2852  3.9061e-03  9.9881e-04  4.0471e-04  3.7749e-03  8.3253e-04  3.3352e-04  0:01:13 1567
  2853  3.8990e-03  9.9310e-04  4.0395e-04  3.7680e-03  8.3417e-04  3.3367e-04  0:00:59 1566
  2854  3.8913e-03  1.0034e-03  4.0572e-04  3.7606e-03  8.3568e-04  3.3377e-04  0:00:47 1565
  2855  3.8832e-03  1.0088e-03  4.0707e-04  3.7527e-03  8.3704e-04  3.3382e-04  0:05:50 1564
  2856  3.8740e-03  1.0158e-03  4.0592e-04  3.7438e-03  8.3836e-04  3.3364e-04  0:04:40 1563
  2857  3.8650e-03  1.0376e-03  4.0630e-04  3.7351e-03  8.3947e-04  3.3348e-04  0:03:44 1562
  2858  3.8552e-03  1.0580e-03  4.0984e-04  3.7253e-03  8.4046e-04  3.3356e-04  0:02:59 1561

  iter  continuity  x-velocity  y-velocity      energy           k       omega     time/iter
  2859  3.8423e-03  1.0379e-03  4.0842e-04  3.7126e-03  8.4130e-04  3.3348e-04  0:02:23 1560
  2860  3.8312e-03  1.0420e-03  4.0577e-04  3.7014e-03  8.4193e-04  3.3341e-04  0:01:54 1559
  2861  3.8195e-03  1.0603e-03  4.0663e-04  3.6895e-03  8.4229e-04  3.3323e-04  0:01:31 1558
  2862  3.8070e-03  1.0674e-03  4.0483e-04  3.6767e-03  8.4240e-04  3.3273e-04  0:01:13 1557
  2863  3.7863e-03  1.0571e-03  4.0318e-04  3.6564e-03  8.4234e-04  3.3224e-04  0:00:58 1556
  2864  3.7634e-03  1.0014e-03  3.9698e-04  3.6344e-03  8.4211e-04  3.3156e-04  0:00:47 1555
  2865  3.7419e-03  9.8117e-04  3.9260e-04  3.6139e-03  8.4169e-04  3.3076e-04  0:05:48 1554
  2866  3.7208e-03  9.7268e-04  3.9093e-04  3.5936e-03  8.4106e-04  3.2982e-04  0:04:38 1553
  2867  3.6990e-03  9.6643e-04  3.9025e-04  3.5725e-03  8.4043e-04  3.2891e-04  0:03:43 1552
  2868  3.6769e-03  9.5995e-04  3.8717e-04  3.5507e-03  8.3972e-04  3.2824e-04  0:02:58 1551
  2869  3.6550e-03  9.5287e-04  3.8172e-04  3.5291e-03  8.3908e-04  3.2749e-04  0:02:22 1550

  iter  continuity  x-velocity  y-velocity      energy           k       omega     time/iter
  2870  3.6327e-03  9.4931e-04  3.8049e-04  3.5070e-03  8.3837e-04  3.2671e-04  0:01:54 1549
  2871  3.6098e-03  9.4454e-04  3.8109e-04  3.4843e-03  8.3750e-04  3.2591e-04  0:01:31 1548
  2872  3.5880e-03  9.4608e-04  3.7920e-04  3.4627e-03  8.3656e-04  3.2500e-04  0:01:13 1547
  2873  3.5653e-03  9.4287e-04  3.7844e-04  3.4403e-03  8.3569e-04  3.2397e-04  0:00:58 1546
  2874  3.5422e-03  9.4561e-04  3.8131e-04  3.4176e-03  8.3469e-04  3.2277e-04  0:00:46 1545
  2875  3.5205e-03  9.6496e-04  3.8187e-04  3.3962e-03  8.3368e-04  3.2142e-04  0:00:37 1544
  2876  3.4971e-03  9.5615e-04  3.8049e-04  3.3730e-03  8.3260e-04  3.2040e-04  0:05:38 1543
  2877  3.4748e-03  9.4606e-04  3.7811e-04  3.3508e-03  8.3149e-04  3.1957e-04  0:04:30 1542
  2878  3.4533e-03  9.5216e-04  3.7806e-04  3.3294e-03  8.3035e-04  3.1854e-04  0:03:36 1541
  2879  3.4320e-03  9.5731e-04  3.8003e-04  3.3087e-03  8.2917e-04  3.1739e-04  0:02:53 1540
  2880  3.4101e-03  9.6077e-04  3.7951e-04  3.2871e-03  8.2798e-04  3.1564e-04  0:02:18 1539

  iter  continuity  x-velocity  y-velocity      energy           k       omega     time/iter
  2881  3.3882e-03  9.6504e-04  3.7787e-04  3.2656e-03  8.2668e-04  3.1390e-04  0:01:50 1538
  2882  3.3646e-03  9.5998e-04  3.7517e-04  3.2427e-03  8.2524e-04  3.1265e-04  0:01:28 1537
  2883  3.3390e-03  9.3673e-04  3.7287e-04  3.2180e-03  8.2371e-04  3.1110e-04  0:01:11 1536
  2884  3.3147e-03  9.1815e-04  3.7189e-04  3.1947e-03  8.2214e-04  3.0947e-04  0:00:56 1535
  2885  3.2938e-03  9.3004e-04  3.6939e-04  3.1744e-03  8.2054e-04  3.0758e-04  0:00:45 1534
  2886  3.2732e-03  9.5156e-04  3.6965e-04  3.1542e-03  8.1889e-04  3.0626e-04  0:05:43 1533
  2887  3.2496e-03  9.2880e-04  3.6790e-04  3.1313e-03  8.1730e-04  3.0509e-04  0:04:34 1532
  2888  3.2309e-03  9.3489e-04  3.6908e-04  3.1129e-03  8.1576e-04  3.0391e-04  0:03:39 1531
  2889  3.2135e-03  9.6910e-04  3.6950e-04  3.0953e-03  8.1425e-04  3.0269e-04  0:02:55 1530
  2890  3.1878e-03  9.4229e-04  3.6736e-04  3.0704e-03  8.1273e-04  3.0140e-04  0:02:20 1529
  2891  3.1597e-03  8.9186e-04  3.6393e-04  3.0437e-03  8.1128e-04  3.0004e-04  0:01:52 1528

  iter  continuity  x-velocity  y-velocity      energy           k       omega     time/iter
  2892  3.1354e-03  8.8171e-04  3.5971e-04  3.0206e-03  8.0983e-04  2.9862e-04  0:01:29 1527
  2893  3.1128e-03  8.7046e-04  3.5498e-04  2.9987e-03  8.0840e-04  2.9718e-04  0:01:12 1526
  2894  3.0915e-03  8.6331e-04  3.5361e-04  2.9779e-03  8.0698e-04  2.9547e-04  0:00:57 1525
  2895  3.0700e-03  8.5377e-04  3.5612e-04  2.9568e-03  8.0558e-04  2.9415e-04  0:00:46 1524
  2896  3.0496e-03  8.5244e-04  3.5489e-04  2.9368e-03  8.0411e-04  2.9315e-04  0:05:41 1523
  2897  3.0295e-03  8.4561e-04  3.5319e-04  2.9171e-03  8.0265e-04  2.9201e-04  0:04:33 1522
  2898  3.0112e-03  8.4950e-04  3.5073e-04  2.8991e-03  8.0122e-04  2.9087e-04  0:03:38 1521
  2899  2.9937e-03  8.4880e-04  3.5005e-04  2.8819e-03  7.9979e-04  2.8955e-04  0:02:54 1520
  2900  2.9757e-03  8.4980e-04  3.4966e-04  2.8645e-03  7.9835e-04  2.8813e-04  0:02:19 1519
  2901  2.9581e-03  8.5648e-04  3.5037e-04  2.8475e-03  7.9694e-04  2.8696e-04  0:01:51 1518
  2902  2.9419e-03  8.6850e-04  3.4855e-04  2.8319e-03  7.9556e-04  2.8536e-04  0:01:29 1517

  iter  continuity  x-velocity  y-velocity      energy           k       omega     time/iter
  2903  2.9273e-03  8.7951e-04  3.4619e-04  2.8177e-03  7.9424e-04  2.8322e-04  0:01:11 1516
  2904  2.9124e-03  8.8998e-04  3.4801e-04  2.8038e-03  7.9294e-04  2.8146e-04  0:00:57 1515
  2905  2.8981e-03  8.9256e-04  3.5089e-04  2.7902e-03  7.9162e-04  2.8013e-04  0:00:46 1514
  2906  2.8833e-03  8.9331e-04  3.4973e-04  2.7761e-03  7.9032e-04  2.7868e-04  0:05:39 1513
  2907  2.8701e-03  9.0815e-04  3.4891e-04  2.7637e-03  7.8910e-04  2.7749e-04  0:04:31 1512
  2908  2.8559e-03  9.0953e-04  3.4893e-04  2.7504e-03  7.8796e-04  2.7622e-04  0:03:37 1511
  2909  2.8438e-03  9.1986e-04  3.5140e-04  2.7391e-03  7.8686e-04  2.7472e-04  0:02:53 1510
  2910  2.8335e-03  9.5242e-04  3.5070e-04  2.7291e-03  7.8578e-04  2.7359e-04  0:02:18 1509
  2911  2.8198e-03  9.2876e-04  3.5098e-04  2.7162e-03  7.8469e-04  2.7253e-04  0:01:51 1508
  2912  2.8162e-03  9.7486e-04  3.5419e-04  2.7124e-03  7.8357e-04  2.7137e-04  0:01:29 1507
  2913  2.8025e-03  9.7048e-04  3.5391e-04  2.6991e-03  7.8241e-04  2.6993e-04  0:01:11 1506

  iter  continuity  x-velocity  y-velocity      energy           k       omega     time/iter
  2914  2.7792e-03  9.0767e-04  3.4759e-04  2.6776e-03  7.8125e-04  2.6818e-04  0:05:58 1505
  2915  2.7636e-03  8.9937e-04  3.4589e-04  2.6632e-03  7.8008e-04  2.6644e-04  0:04:46 1504
  2916  2.7494e-03  8.9678e-04  3.4345e-04  2.6499e-03  7.7890e-04  2.6540e-04  0:03:49 1503
  2917  2.7362e-03  8.9929e-04  3.3949e-04  2.6373e-03  7.7767e-04  2.6429e-04  0:03:03 1502
  2918  2.7232e-03  8.9910e-04  3.3745e-04  2.6246e-03  7.7640e-04  2.6324e-04  0:02:26 1501
  2919  2.7115e-03  8.9726e-04  3.3667e-04  2.6133e-03  7.7519e-04  2.6209e-04  0:01:57 1500
  2920  2.7023e-03  9.1808e-04  3.3831e-04  2.6042e-03  7.7401e-04  2.6103e-04  0:01:33 1499
  2921  2.6950e-03  9.6210e-04  3.3697e-04  2.5970e-03  7.7279e-04  2.5975e-04  0:01:15 1498
  2922  2.6808e-03  9.5116e-04  3.3385e-04  2.5835e-03  7.7155e-04  2.5901e-04  0:01:00 1497
  2923  2.6687e-03  9.2125e-04  3.3319e-04  2.5723e-03  7.7033e-04  2.5864e-04  0:00:48 1496
  2924  2.6605e-03  9.3012e-04  3.3523e-04  2.5648e-03  7.6915e-04  2.5807e-04  0:05:37 1495

  iter  continuity  x-velocity  y-velocity      energy           k       omega     time/iter
  2925  2.6524e-03  9.4719e-04  3.3632e-04  2.5575e-03  7.6807e-04  2.5648e-04  0:04:30 1494
  2926  2.6455e-03  9.6084e-04  3.3540e-04  2.5513e-03  7.6711e-04  2.5517e-04  0:03:35 1493
  2927  2.6383e-03  9.6059e-04  3.3213e-04  2.5450e-03  7.6622e-04  2.5474e-04  0:02:52 1492
  2928  2.6338e-03  9.6578e-04  3.3314e-04  2.5414e-03  7.6550e-04  2.5475e-04  0:02:18 1491
  2929  2.6344e-03  1.0086e-03  3.3313e-04  2.5430e-03  7.6489e-04  2.5475e-04  0:01:50 1490
  2930  2.6304e-03  1.0141e-03  3.3474e-04  2.5392e-03  7.6436e-04  2.5470e-04  0:01:28 1489
  2931  2.6296e-03  1.0191e-03  3.3600e-04  2.5387e-03  7.6390e-04  2.5469e-04  0:01:10 1488
  2932  2.6315e-03  1.0386e-03  3.3853e-04  2.5407e-03  7.6350e-04  2.5440e-04  0:00:56 1487
  2933  2.6347e-03  1.0586e-03  3.3919e-04  2.5430e-03  7.6311e-04  2.5435e-04  0:00:45 1486
  2934  2.6286e-03  1.0489e-03  3.3717e-04  2.5376e-03  7.6277e-04  2.5452e-04  0:00:36 1485
  2935  2.6218e-03  9.9549e-04  3.3168e-04  2.5324e-03  7.6243e-04  2.5456e-04  0:05:26 1484

  iter  continuity  x-velocity  y-velocity      energy           k       omega     time/iter
  2936  2.6207e-03  9.8232e-04  3.2913e-04  2.5327e-03  7.6210e-04  2.5487e-04  0:04:20 1483
  2937  2.6203e-03  9.8258e-04  3.2859e-04  2.5331e-03  7.6179e-04  2.5519e-04  0:03:28 1482
  2938  2.6204e-03  9.8202e-04  3.2814e-04  2.5335e-03  7.6156e-04  2.5521e-04  0:02:46 1481
  2939  2.6203e-03  9.8007e-04  3.2954e-04  2.5336e-03  7.6136e-04  2.5591e-04  0:02:13 1480
  2940  2.6219e-03  9.8916e-04  3.2538e-04  2.5356e-03  7.6129e-04  2.5661e-04  0:01:46 1479
  2941  2.6253e-03  1.0007e-03  3.2228e-04  2.5396e-03  7.6129e-04  2.5732e-04  0:01:25 1478
  2942  2.6296e-03  1.0132e-03  3.2297e-04  2.5446e-03  7.6137e-04  2.5806e-04  0:01:08 1477
  2943  2.6348e-03  1.0240e-03  3.2499e-04  2.5503e-03  7.6156e-04  2.5862e-04  0:00:54 1476
  2944  2.6411e-03  1.0400e-03  3.2703e-04  2.5572e-03  7.6184e-04  2.5870e-04  0:05:38 1475
  2945  2.6479e-03  1.0520e-03  3.2771e-04  2.5647e-03  7.6218e-04  2.5923e-04  0:04:31 1474
  2946  2.6559e-03  1.0573e-03  3.2362e-04  2.5731e-03  7.6262e-04  2.6032e-04  0:03:36 1473

  iter  continuity  x-velocity  y-velocity      energy           k       omega     time/iter
  2947  2.6640e-03  1.0640e-03  3.2071e-04  2.5819e-03  7.6317e-04  2.6112e-04  0:02:53 1472
  2948  2.6757e-03  1.1049e-03  3.2121e-04  2.5946e-03  7.6375e-04  2.6170e-04  0:02:18 1471
  2949  2.6842e-03  1.1004e-03  3.2447e-04  2.6036e-03  7.6434e-04  2.6228e-04  0:01:51 1470
  2950  2.6973e-03  1.1110e-03  3.2471e-04  2.6174e-03  7.6495e-04  2.6274e-04  0:01:28 1469
  2951  2.7130e-03  1.1315e-03  3.2480e-04  2.6335e-03  7.6551e-04  2.6244e-04  0:01:11 1468
  2952  2.7320e-03  1.1345e-03  3.2591e-04  2.6521e-03  7.6605e-04  2.6185e-04  0:00:56 1467
  2953  2.7536e-03  1.1712e-03  3.2721e-04  2.6729e-03  7.6652e-04  2.6192e-04  0:00:45 1466
  2954  2.7597e-03  1.1364e-03  3.2341e-04  2.6797e-03  7.6689e-04  2.6223e-04  0:00:36 1465
  2955  2.7615e-03  1.0486e-03  3.1311e-04  2.6837e-03  7.6716e-04  2.6231e-04  0:05:22 1464
  2956  2.7708e-03  1.0293e-03  3.1068e-04  2.6945e-03  7.6739e-04  2.6257e-04  0:04:17 1463
  2957  2.7822e-03  1.0295e-03  3.0923e-04  2.7069e-03  7.6757e-04  2.6291e-04  0:03:26 1462

  iter  continuity  x-velocity  y-velocity      energy           k       omega     time/iter
  2958  2.7942e-03  1.0322e-03  3.0606e-04  2.7198e-03  7.6780e-04  2.6309e-04  0:02:44 1461
  2959  2.8066e-03  1.0334e-03  3.0445e-04  2.7329e-03  7.6809e-04  2.6293e-04  0:02:11 1460
  2960  2.8171e-03  1.0250e-03  3.0497e-04  2.7440e-03  7.6841e-04  2.6339e-04  0:01:45 1459
  2961  2.8289e-03  1.0263e-03  3.0395e-04  2.7562e-03  7.6875e-04  2.6349e-04  0:01:24 1458
  2962  2.8408e-03  1.0331e-03  3.0222e-04  2.7682e-03  7.6914e-04  2.6379e-04  0:01:07 1457
  2963  2.8527e-03  1.0408e-03  3.0550e-04  2.7801e-03  7.6960e-04  2.6412e-04  0:00:54 1456
  2964  2.8628e-03  1.0489e-03  3.0814e-04  2.7905e-03  7.7010e-04  2.6446e-04  0:00:43 1455
  2965  2.8722e-03  1.0605e-03  3.0790e-04  2.8003e-03  7.7062e-04  2.6456e-04  0:05:25 1454
  2966  2.8804e-03  1.0730e-03  3.0415e-04  2.8093e-03  7.7112e-04  2.6453e-04  0:04:20 1453
  2967  2.8885e-03  1.0864e-03  3.0362e-04  2.8183e-03  7.7160e-04  2.6400e-04  0:03:28 1452
  2968  2.8937e-03  1.0752e-03  3.0421e-04  2.8241e-03  7.7211e-04  2.6423e-04  0:02:46 1451

  iter  continuity  x-velocity  y-velocity      energy           k       omega     time/iter
  2969  2.9007e-03  1.0756e-03  3.0562e-04  2.8319e-03  7.7260e-04  2.6437e-04  0:02:13 1450
  2970  2.9099e-03  1.0825e-03  3.0413e-04  2.8417e-03  7.7305e-04  2.6439e-04  0:01:46 1449
  2971  2.9183e-03  1.0865e-03  3.0194e-04  2.8502e-03  7.7346e-04  2.6443e-04  0:01:25 1448
  2972  2.9255e-03  1.0880e-03  3.0376e-04  2.8577e-03  7.7379e-04  2.6448e-04  0:01:08 1447
  2973  2.9377e-03  1.1052e-03  3.0725e-04  2.8692e-03  7.7402e-04  2.6471e-04  0:00:54 1446
  2974  2.9470e-03  1.1243e-03  3.0915e-04  2.8781e-03  7.7410e-04  2.6481e-04  0:00:43 1445
  2975  2.9433e-03  1.0603e-03  3.0459e-04  2.8757e-03  7.7410e-04  2.6481e-04  0:00:35 1444
  2976  2.9460e-03  1.0358e-03  2.9804e-04  2.8796e-03  7.7402e-04  2.6427e-04  0:05:16 1443
  2977  2.9490e-03  1.0203e-03  2.9699e-04  2.8835e-03  7.7389e-04  2.6417e-04  0:04:13 1442
  2978  2.9524e-03  1.0095e-03  2.9554e-04  2.8876e-03  7.7366e-04  2.6441e-04  0:03:22 1441
  2979  2.9558e-03  1.0081e-03  2.9706e-04  2.8914e-03  7.7339e-04  2.6459e-04  0:02:42 1440

  iter  continuity  x-velocity  y-velocity      energy           k       omega     time/iter
  2980  2.9578e-03  1.0124e-03  2.9490e-04  2.8938e-03  7.7293e-04  2.6446e-04  0:02:09 1439
  2981  2.9590e-03  1.0111e-03  2.9247e-04  2.8954e-03  7.7253e-04  2.6380e-04  0:01:43 1438
  2982  2.9614e-03  1.0226e-03  2.9350e-04  2.8979e-03  7.7206e-04  2.6292e-04  0:01:23 1437
  2983  2.9618e-03  1.0280e-03  2.9269e-04  2.8983e-03  7.7155e-04  2.6215e-04  0:01:06 1436
  2984  2.9623e-03  1.0378e-03  2.9410e-04  2.8988e-03  7.7096e-04  2.6178e-04  0:00:53 1435
  2985  2.9612e-03  1.0544e-03  2.9662e-04  2.8979e-03  7.7026e-04  2.6136e-04  0:00:42 1434
  2986  2.9527e-03  1.0329e-03  2.9407e-04  2.8902e-03  7.6941e-04  2.6081e-04  0:05:20 1433
  2987  2.9450e-03  1.0091e-03  2.8990e-04  2.8835e-03  7.6853e-04  2.5985e-04  0:04:16 1432
  2988  2.9377e-03  1.0091e-03  2.8689e-04  2.8768e-03  7.6758e-04  2.5968e-04  0:03:25 1431
  2989  2.9289e-03  1.0144e-03  2.8489e-04  2.8688e-03  7.6665e-04  2.5937e-04  0:02:44 1430
  2990  2.9213e-03  1.0275e-03  2.8705e-04  2.8618e-03  7.6573e-04  2.5892e-04  0:02:11 1429

  iter  continuity  x-velocity  y-velocity      energy           k       omega     time/iter
  2991  2.9118e-03  1.0395e-03  2.9211e-04  2.8524e-03  7.6469e-04  2.5843e-04  0:01:45 1428
  2992  2.9012e-03  1.0322e-03  2.9309e-04  2.8422e-03  7.6356e-04  2.5781e-04  0:01:24 1427
  2993  2.8939e-03  1.0504e-03  2.9218e-04  2.8348e-03  7.6233e-04  2.5708e-04  0:01:07 1426
  2994  2.8809e-03  1.0251e-03  2.8979e-04  2.8212e-03  7.6111e-04  2.5680e-04  0:00:53 1425
  2995  2.8738e-03  1.0524e-03  2.9070e-04  2.8134e-03  7.5983e-04  2.5655e-04  0:00:43 1424
  2996  2.8506e-03  9.8462e-04  2.8767e-04  2.7911e-03  7.5845e-04  2.5615e-04  0:05:19 1423
  2997  2.8308e-03  9.3990e-04  2.8230e-04  2.7723e-03  7.5698e-04  2.5552e-04  0:04:15 1422
  2998  2.8117e-03  9.2102e-04  2.8052e-04  2.7540e-03  7.5550e-04  2.5458e-04  0:03:24 1421
  2999  2.7931e-03  9.1741e-04  2.8117e-04  2.7360e-03  7.5393e-04  2.5436e-04  0:02:43 1420
  3000  2.7734e-03  9.1265e-04  2.8116e-04  2.7165e-03  7.5232e-04  2.5404e-04  0:02:10 1419
  3001  2.7532e-03  9.0969e-04  2.7977e-04  2.6965e-03  7.5068e-04  2.5357e-04  0:01:44 1418

  iter  continuity  x-velocity  y-velocity      energy           k       omega     time/iter
  3002  2.7331e-03  9.0816e-04  2.7865e-04  2.6766e-03  7.4899e-04  2.5292e-04  0:01:23 1417
  3003  2.7123e-03  8.9964e-04  2.7802e-04  2.6561e-03  7.4729e-04  2.5230e-04  0:01:07 1416
  3004  2.6903e-03  9.0102e-04  2.7770e-04  2.6343e-03  7.4559e-04  2.5177e-04  0:00:53 1415
  3005  2.6686e-03  8.9710e-04  2.7458e-04  2.6128e-03  7.4393e-04  2.5128e-04  0:00:43 1414
  3006  2.6479e-03  9.0299e-04  2.7348e-04  2.5921e-03  7.4234e-04  2.5087e-04  0:05:17 1413
  3007  2.6271e-03  9.1107e-04  2.7664e-04  2.5712e-03  7.4075e-04  2.5046e-04  0:04:13 1412
  3008  2.6046e-03  9.2019e-04  2.7956e-04  2.5489e-03  7.3914e-04  2.5004e-04  0:03:22 1411
  3009  2.5822e-03  9.2234e-04  2.7909e-04  2.5267e-03  7.3751e-04  2.4946e-04  0:02:42 1410
  3010  2.5614e-03  9.4267e-04  2.7724e-04  2.5063e-03  7.3587e-04  2.4846e-04  0:02:09 1409
  3011  2.5388e-03  9.5649e-04  2.7776e-04  2.4842e-03  7.3421e-04  2.4757e-04  0:01:43 1408
  3012  2.5166e-03  9.7472e-04  2.7637e-04  2.4621e-03  7.3250e-04  2.4651e-04  0:01:23 1407

  iter  continuity  x-velocity  y-velocity      energy           k       omega     time/iter
  3013  2.4948e-03  9.7221e-04  2.7526e-04  2.4407e-03  7.3076e-04  2.4552e-04  0:01:06 1406
  3014  2.4759e-03  9.9331e-04  2.7676e-04  2.4213e-03  7.2900e-04  2.4464e-04  0:00:53 1405
  3015  2.4546e-03  9.8948e-04  2.7878e-04  2.3994e-03  7.2723e-04  2.4387e-04  0:00:42 1404
  3016  2.4386e-03  1.0058e-03  2.7731e-04  2.3820e-03  7.2547e-04  2.4311e-04  0:05:14 1403
  3017  2.4153e-03  1.0073e-03  2.7552e-04  2.3582e-03  7.2371e-04  2.4229e-04  0:04:11 1402
  3018  2.3753e-03  9.0276e-04  2.6993e-04  2.3195e-03  7.2191e-04  2.4143e-04  0:03:21 1401
  3019  2.3437e-03  8.3985e-04  2.6797e-04  2.2893e-03  7.2012e-04  2.4055e-04  0:02:41 1400
  3020  2.3158e-03  8.1597e-04  2.6784e-04  2.2622e-03  7.1833e-04  2.3944e-04  0:02:08 1399
  3021  2.2900e-03  8.0546e-04  2.6756e-04  2.2367e-03  7.1655e-04  2.3852e-04  0:01:43 1398
  3022  2.2660e-03  8.0004e-04  2.6278e-04  2.2128e-03  7.1480e-04  2.3785e-04  0:01:22 1397
  3023  2.2431e-03  7.9808e-04  2.6015e-04  2.1895e-03  7.1306e-04  2.3717e-04  0:01:06 1396

  iter  continuity  x-velocity  y-velocity      energy           k       omega     time/iter
  3024  2.2198e-03  7.8964e-04  2.5953e-04  2.1659e-03  7.1130e-04  2.3644e-04  0:00:52 1395
  3025  2.1964e-03  7.8446e-04  2.6065e-04  2.1423e-03  7.0952e-04  2.3572e-04  0:00:42 1394
  3026  2.1741e-03  7.8377e-04  2.5958e-04  2.1197e-03  7.0769e-04  2.3494e-04  0:00:34 1393
  3027  2.1526e-03  7.9051e-04  2.5921e-04  2.0979e-03  7.0581e-04  2.3397e-04  0:05:05 1392
  3028  2.1308e-03  7.9364e-04  2.5917e-04  2.0760e-03  7.0389e-04  2.3264e-04  0:04:04 1391
  3029  2.1102e-03  7.9907e-04  2.5931e-04  2.0553e-03  7.0194e-04  2.3182e-04  0:03:15 1390
  3030  2.0906e-03  8.0536e-04  2.5924e-04  2.0358e-03  6.9995e-04  2.3101e-04  0:02:36 1389
  3031  2.0703e-03  8.1441e-04  2.6105e-04  2.0156e-03  6.9790e-04  2.2990e-04  0:02:05 1388
  3032  2.0490e-03  8.1793e-04  2.5893e-04  1.9945e-03  6.9581e-04  2.2875e-04  0:01:40 1387
  3033  2.0283e-03  8.0882e-04  2.5605e-04  1.9742e-03  6.9372e-04  2.2782e-04  0:01:20 1386
  3034  2.0126e-03  8.2521e-04  2.5819e-04  1.9586e-03  6.9161e-04  2.2698e-04  0:01:04 1385

  iter  continuity  x-velocity  y-velocity      energy           k       omega     time/iter
  3035  1.9984e-03  8.5690e-04  2.5606e-04  1.9445e-03  6.8947e-04  2.2617e-04  0:00:51 1384
  3036  1.9851e-03  8.7960e-04  2.5338e-04  1.9312e-03  6.8737e-04  2.2543e-04  0:00:41 1383
  3037  1.9746e-03  9.0749e-04  2.5311e-04  1.9202e-03  6.8526e-04  2.2462e-04  0:00:33 1382
  3038  1.9589e-03  8.8877e-04  2.5463e-04  1.9040e-03  6.8318e-04  2.2386e-04  0:05:02 1381
  3039  1.9541e-03  9.2179e-04  2.5741e-04  1.8976e-03  6.8115e-04  2.2335e-04  0:04:02 1380
  3040  1.9441e-03  9.3595e-04  2.5832e-04  1.8869e-03  6.7910e-04  2.2282e-04  0:03:13 1379
  3041  1.9197e-03  8.6048e-04  2.5612e-04  1.8631e-03  6.7707e-04  2.2220e-04  0:02:34 1378
  3042  1.9043e-03  8.2075e-04  2.5223e-04  1.8482e-03  6.7502e-04  2.2141e-04  0:02:03 1377
  3043  1.8918e-03  8.0245e-04  2.5034e-04  1.8360e-03  6.7301e-04  2.2038e-04  0:01:39 1376
  3044  1.8833e-03  8.0015e-04  2.5133e-04  1.8272e-03  6.7103e-04  2.1921e-04  0:01:19 1375
  3045  1.8751e-03  8.0149e-04  2.5001e-04  1.8188e-03  6.6907e-04  2.1811e-04  0:05:38 1374

  iter  continuity  x-velocity  y-velocity      energy           k       omega     time/iter
  3046  1.8624e-03  7.6910e-04  2.4568e-04  1.8062e-03  6.6705e-04  2.1709e-04  0:04:30 1373
  3047  1.8513e-03  7.4455e-04  2.4065e-04  1.7956e-03  6.6501e-04  2.1636e-04  0:03:36 1372
  3048  1.8428e-03  7.4193e-04  2.3914e-04  1.7876e-03  6.6295e-04  2.1565e-04  0:02:53 1371
  3049  1.8339e-03  7.2513e-04  2.3991e-04  1.7789e-03  6.6087e-04  2.1472e-04  0:02:18 1370
  3050  1.8264e-03  7.1238e-04  2.4051e-04  1.7712e-03  6.5872e-04  2.1349e-04  0:01:50 1369
  3051  1.8214e-03  7.1056e-04  2.4175e-04  1.7660e-03  6.5652e-04  2.1233e-04  0:01:28 1368
  3052  1.8181e-03  7.1394e-04  2.4201e-04  1.7625e-03  6.5431e-04  2.1128e-04  0:01:10 1367
  3053  1.8141e-03  7.2310e-04  2.4147e-04  1.7586e-03  6.5208e-04  2.1031e-04  0:00:56 1366
  3054  1.8089e-03  7.2316e-04  2.4105e-04  1.7536e-03  6.4980e-04  2.0939e-04  0:00:45 1365
  3055  1.8072e-03  7.3914e-04  2.3927e-04  1.7520e-03  6.4749e-04  2.0850e-04  0:00:36 1364
  3056  1.8059e-03  7.6092e-04  2.3885e-04  1.7508e-03  6.4519e-04  2.0767e-04  0:05:01 1363

  iter  continuity  x-velocity  y-velocity      energy           k       omega     time/iter
  3057  1.8032e-03  7.6914e-04  2.4321e-04  1.7482e-03  6.4286e-04  2.0695e-04  0:04:01 1362
  3058  1.8033e-03  7.9386e-04  2.4448e-04  1.7487e-03  6.4053e-04  2.0631e-04  0:03:13 1361
  3059  1.8018e-03  8.0246e-04  2.4411e-04  1.7474e-03  6.3822e-04  2.0573e-04  0:02:34 1360
  3060  1.8012e-03  8.0317e-04  2.4545e-04  1.7470e-03  6.3596e-04  2.0520e-04  0:02:03 1359
  3061  1.8043e-03  8.2064e-04  2.4692e-04  1.7500e-03  6.3374e-04  2.0446e-04  0:01:38 1358
  3062  1.8049e-03  8.0385e-04  2.4727e-04  1.7505e-03  6.3158e-04  2.0381e-04  0:01:19 1357
  3063  1.8153e-03  8.3666e-04  2.4588e-04  1.7597e-03  6.2953e-04  2.0353e-04  0:01:03 1356
  3064  1.8223e-03  8.5049e-04  2.4346e-04  1.7666e-03  6.2755e-04  2.0318e-04  0:00:50 1355
  3065  1.8138e-03  7.6721e-04  2.4296e-04  1.7593e-03  6.2567e-04  2.0268e-04  0:00:40 1354
  3066  1.8166e-03  7.3398e-04  2.4320e-04  1.7633e-03  6.2383e-04  2.0201e-04  0:05:03 1353
  3067  1.8219e-03  7.1431e-04  2.4042e-04  1.7696e-03  6.2206e-04  2.0135e-04  0:04:02 1352

  iter  continuity  x-velocity  y-velocity      energy           k       omega     time/iter
  3068  1.8312e-03  7.1217e-04  2.3664e-04  1.7795e-03  6.2038e-04  2.0062e-04  0:03:13 1351
  3069  1.8429e-03  7.1913e-04  2.3433e-04  1.7915e-03  6.1883e-04  1.9980e-04  0:02:35 1350
  3070  1.8564e-03  7.3393e-04  2.3489e-04  1.8049e-03  6.1758e-04  1.9930e-04  0:02:04 1349
  3071  1.8683e-03  7.3328e-04  2.3710e-04  1.8168e-03  6.1656e-04  1.9879e-04  0:01:39 1348
  3072  1.8820e-03  7.3754e-04  2.3702e-04  1.8303e-03  6.1576e-04  1.9832e-04  0:01:19 1347
  3073  1.8966e-03  7.4374e-04  2.3707e-04  1.8445e-03  6.1517e-04  1.9776e-04  0:01:03 1346
  3074  1.9111e-03  7.6791e-04  2.3633e-04  1.8588e-03  6.1476e-04  1.9719e-04  0:00:50 1345
  3075  1.9248e-03  7.7467e-04  2.3732e-04  1.8725e-03  6.1444e-04  1.9669e-04  0:00:40 1344
  3076  1.9311e-03  7.3795e-04  2.3654e-04  1.8792e-03  6.1422e-04  1.9618e-04  0:05:01 1343
  3077  1.9377e-03  7.0017e-04  2.3664e-04  1.8865e-03  6.1417e-04  1.9547e-04  0:04:01 1342
  3078  1.9465e-03  6.9933e-04  2.3607e-04  1.8958e-03  6.1420e-04  1.9479e-04  0:03:12 1341

  iter  continuity  x-velocity  y-velocity      energy           k       omega     time/iter
  3079  1.9525e-03  6.8972e-04  2.3919e-04  1.9024e-03  6.1432e-04  1.9403e-04  0:02:34 1340
  3080  1.9615e-03  6.9747e-04  2.4190e-04  1.9117e-03  6.1454e-04  1.9368e-04  0:02:03 1339
  3081  1.9712e-03  7.1770e-04  2.4298e-04  1.9217e-03  6.1485e-04  1.9377e-04  0:01:38 1338
  3082  1.9795e-03  7.3792e-04  2.4399e-04  1.9305e-03  6.1525e-04  1.9389e-04  0:01:19 1337
  3083  1.9890e-03  7.5642e-04  2.4372e-04  1.9402e-03  6.1568e-04  1.9400e-04  0:01:03 1336
  3084  1.9975e-03  7.6486e-04  2.4313e-04  1.9490e-03  6.1618e-04  1.9414e-04  0:00:50 1335
  3085  2.0096e-03  7.7992e-04  2.4453e-04  1.9609e-03  6.1666e-04  1.9431e-04  0:00:40 1334
  3086  2.0209e-03  7.8736e-04  2.4675e-04  1.9722e-03  6.1714e-04  1.9446e-04  0:00:32 1333
  3087  2.0346e-03  7.8489e-04  2.4750e-04  1.9853e-03  6.1762e-04  1.9468e-04  0:04:52 1332
  3088  2.0520e-03  8.2208e-04  2.4925e-04  2.0018e-03  6.1806e-04  1.9477e-04  0:03:53 1331
  3089  2.0644e-03  8.1417e-04  2.4606e-04  2.0143e-03  6.1846e-04  1.9479e-04  0:03:07 1330

  iter  continuity  x-velocity  y-velocity      energy           k       omega     time/iter
  3090  2.0669e-03  7.3454e-04  2.4309e-04  2.0178e-03  6.1882e-04  1.9472e-04  0:02:29 1329
  3091  2.0769e-03  7.0419e-04  2.4467e-04  2.0287e-03  6.1912e-04  1.9452e-04  0:01:59 1328
  3092  2.0894e-03  6.9967e-04  2.4702e-04  2.0419e-03  6.1936e-04  1.9403e-04  0:01:35 1327
  3093  2.1025e-03  6.9762e-04  2.4711e-04  2.0555e-03  6.1953e-04  1.9382e-04  0:01:16 1326
  3094  2.1158e-03  6.9085e-04  2.4815e-04  2.0689e-03  6.1962e-04  1.9365e-04  0:01:01 1325
  3095  2.1296e-03  6.9097e-04  2.4677e-04  2.0829e-03  6.1963e-04  1.9347e-04  0:00:49 1324
  3096  2.1438e-03  6.9873e-04  2.4517e-04  2.0971e-03  6.1957e-04  1.9331e-04  0:00:39 1323
  3097  2.1566e-03  6.9975e-04  2.4405e-04  2.1099e-03  6.1942e-04  1.9304e-04  0:04:56 1322
  3098  2.1686e-03  7.0507e-04  2.4646e-04  2.1218e-03  6.1919e-04  1.9269e-04  0:03:56 1321
  3099  2.1798e-03  7.1081e-04  2.4835e-04  2.1331e-03  6.1890e-04  1.9210e-04  0:03:09 1320
  3100  2.1893e-03  7.1399e-04  2.4720e-04  2.1426e-03  6.1856e-04  1.9157e-04  0:02:31 1319

  iter  continuity  x-velocity  y-velocity      energy           k       omega     time/iter
  3101  2.1988e-03  7.3344e-04  2.4721e-04  2.1520e-03  6.1820e-04  1.9142e-04  0:02:01 1318
  3102  2.2066e-03  7.4357e-04  2.4846e-04  2.1598e-03  6.1774e-04  1.9093e-04  0:01:36 1317
  3103  2.2123e-03  7.5562e-04  2.4880e-04  2.1655e-03  6.1718e-04  1.9038e-04  0:01:17 1316
  3104  2.2170e-03  7.5446e-04  2.4821e-04  2.1701e-03  6.1655e-04  1.9018e-04  0:01:02 1315
  3105  2.2226e-03  7.6177e-04  2.4794e-04  2.1754e-03  6.1586e-04  1.9005e-04  0:00:49 1314
  3106  2.2292e-03  8.0254e-04  2.4660e-04  2.1819e-03  6.1509e-04  1.8997e-04  0:00:39 1313
  3107  2.2315e-03  8.1503e-04  2.4859e-04  2.1844e-03  6.1430e-04  1.8992e-04  0:04:54 1312
  3108  2.2309e-03  7.9804e-04  2.5366e-04  2.1841e-03  6.1344e-04  1.8992e-04  0:03:55 1311
  3109  2.2329e-03  7.9494e-04  2.5493e-04  2.1865e-03  6.1250e-04  1.8997e-04  0:03:08 1310
  3110  2.2342e-03  7.9143e-04  2.5543e-04  2.1882e-03  6.1151e-04  1.9011e-04  0:02:30 1309
  3111  2.2365e-03  7.9401e-04  2.5275e-04  2.1906e-03  6.1044e-04  1.9033e-04  0:02:00 1308

  iter  continuity  x-velocity  y-velocity      energy           k       omega     time/iter
  3112  2.2410e-03  7.8675e-04  2.4997e-04  2.1944e-03  6.0933e-04  1.9056e-04  0:01:36 1307
  3113  2.2483e-03  8.1060e-04  2.5143e-04  2.2007e-03  6.0818e-04  1.9083e-04  0:01:17 1306
  3114  2.2542e-03  8.2662e-04  2.5414e-04  2.2061e-03  6.0695e-04  1.9095e-04  0:01:01 1305
  3115  2.2486e-03  7.6449e-04  2.5452e-04  2.2010e-03  6.0566e-04  1.9082e-04  0:00:49 1304
  3116  2.2487e-03  7.2888e-04  2.5497e-04  2.2018e-03  6.0425e-04  1.9025e-04  0:05:00 1303
  3117  2.2499e-03  7.1425e-04  2.5543e-04  2.2035e-03  6.0272e-04  1.9019e-04  0:04:00 1302
  3118  2.2523e-03  7.1181e-04  2.5546e-04  2.2062e-03  6.0109e-04  1.9006e-04  0:03:12 1301
  3119  2.2553e-03  7.1418e-04  2.5439e-04  2.2092e-03  5.9931e-04  1.8967e-04  0:02:33 1300
  3120  2.2584e-03  7.1794e-04  2.5431e-04  2.2124e-03  5.9746e-04  1.8932e-04  0:02:02 1299
  3121  2.2608e-03  7.1913e-04  2.5596e-04  2.2148e-03  5.9552e-04  1.8897e-04  0:01:38 1298
  3122  2.2631e-03  7.1774e-04  2.5497e-04  2.2170e-03  5.9356e-04  1.8843e-04  0:01:18 1297

  iter  continuity  x-velocity  y-velocity      energy           k       omega     time/iter
[...]
  3973  1.6151e-03  3.3466e-04  1.4638e-04  1.5824e-03  2.2992e-04  1.0289e-04  0:01:20  446
  3974  1.6248e-03  3.3369e-04  1.4707e-04  1.5922e-03  2.3031e-04  1.0300e-04  0:01:04  445
  3975  1.6348e-03  3.3315e-04  1.4772e-04  1.6023e-03  2.3076e-04  1.0308e-04  0:00:51  444
  3976  1.6452e-03  3.3425e-04  1.4830e-04  1.6128e-03  2.3125e-04  1.0311e-04  0:00:41  443
  3977  1.6560e-03  3.3679e-04  1.4847e-04  1.6237e-03  2.3177e-04  1.0310e-04  0:00:32  442
  3978  1.6672e-03  3.4179e-04  1.4850e-04  1.6350e-03  2.3228e-04  1.0307e-04  0:00:26  441
  3979  1.6785e-03  3.4401e-04  1.4831e-04  1.6463e-03  2.3282e-04  1.0302e-04  0:00:21  440
  3980  1.6897e-03  3.4304e-04  1.4767e-04  1.6577e-03  2.3341e-04  1.0296e-04  0:01:44  439

  iter  continuity  x-velocity  y-velocity      energy           k       omega     time/iter
  3981  1.7013e-03  3.4204e-04  1.4723e-04  1.6693e-03  2.3400e-04  1.0287e-04  0:01:23  438
  3982  1.7131e-03  3.4214e-04  1.4709e-04  1.6812e-03  2.3456e-04  1.0272e-04  0:01:06  437
  3983  1.7248e-03  3.3355e-04  1.4663e-04  1.6930e-03  2.3514e-04  1.0254e-04  0:00:53  436
  3984  1.7370e-03  3.3089e-04  1.4658e-04  1.7053e-03  2.3573e-04  1.0232e-04  0:00:42  435
  3985  1.7496e-03  3.3113e-04  1.4659e-04  1.7179e-03  2.3635e-04  1.0209e-04  0:00:34  434
  3986  1.7625e-03  3.3308e-04  1.4692e-04  1.7309e-03  2.3696e-04  1.0183e-04  0:00:27  433
  3987  1.7755e-03  3.3342e-04  1.4739e-04  1.7440e-03  2.3760e-04  1.0157e-04  0:00:22  432
  3988  1.7887e-03  3.3399e-04  1.4788e-04  1.7572e-03  2.3824e-04  1.0132e-04  0:00:17  431
  3989  1.8020e-03  3.3388e-04  1.4837e-04  1.7705e-03  2.3885e-04  1.0109e-04  0:00:14  430
  3990  1.8154e-03  3.3401e-04  1.4872e-04  1.7841e-03  2.3943e-04  1.0085e-04  0:01:37  429
  3991  1.8291e-03  3.3538e-04  1.4898e-04  1.7978e-03  2.4000e-04  1.0056e-04  0:01:17  428

  iter  continuity  x-velocity  y-velocity      energy           k       omega     time/iter
  3992  1.8429e-03  3.3837e-04  1.4863e-04  1.8117e-03  2.4054e-04  1.0024e-04  0:01:02  427
  3993  1.8569e-03  3.4386e-04  1.4800e-04  1.8257e-03  2.4104e-04  9.9887e-05  0:00:49  426
  3994  1.8708e-03  3.4949e-04  1.4754e-04  1.8397e-03  2.4153e-04  9.9517e-05  0:00:39  425
  3995  1.8841e-03  3.4076e-04  1.4717e-04  1.8531e-03  2.4200e-04  9.9125e-05  0:00:31  424
  3996  1.8977e-03  3.3610e-04  1.4640e-04  1.8668e-03  2.4243e-04  9.8728e-05  0:00:25  423
  3997  1.9116e-03  3.3362e-04  1.4561e-04  1.8807e-03  2.4282e-04  9.8333e-05  0:00:20  422
  3998  1.9255e-03  3.3264e-04  1.4489e-04  1.8947e-03  2.4317e-04  9.7941e-05  0:00:16  421
  3999  1.9396e-03  3.3237e-04  1.4412e-04  1.9088e-03  2.4348e-04  9.7531e-05  0:00:13  420
  4000  1.9538e-03  3.3281e-04  1.4339e-04  1.9230e-03  2.4376e-04  9.7137e-05  0:01:34  419
  4001  1.9681e-03  3.3324e-04  1.4299e-04  1.9373e-03  2.4403e-04  9.6764e-05  0:01:15  418
  4002  1.9824e-03  3.3413e-04  1.4252e-04  1.9517e-03  2.4427e-04  9.6416e-05  0:01:00  417

  iter  continuity  x-velocity  y-velocity      energy           k       omega     time/iter
  4003  1.9969e-03  3.3520e-04  1.4253e-04  1.9661e-03  2.4450e-04  9.6085e-05  0:00:48  416
  4004  2.0112e-03  3.3585e-04  1.4270e-04  1.9805e-03  2.4474e-04  9.5778e-05  0:00:38  415
  4005  2.0257e-03  3.3658e-04  1.4292e-04  1.9950e-03  2.4494e-04  9.5485e-05  0:00:30  414
  4006  2.0401e-03  3.3636e-04  1.4301e-04  2.0094e-03  2.4510e-04  9.5186e-05  0:00:24  413
  4007  2.0544e-03  3.3581e-04  1.4292e-04  2.0237e-03  2.4521e-04  9.4907e-05  0:00:19  412
  4008  2.0687e-03  3.3557e-04  1.4244e-04  2.0379e-03  2.4527e-04  9.4619e-05  0:00:15  411
  4009  2.0828e-03  3.3574e-04  1.4192e-04  2.0520e-03  2.4528e-04  9.4320e-05  0:00:12  410
  4010  2.0967e-03  3.3514e-04  1.4132e-04  2.0659e-03  2.4522e-04  9.3987e-05  0:01:32  409
  4011  2.1105e-03  3.3495e-04  1.4058e-04  2.0797e-03  2.4511e-04  9.3654e-05  0:01:13  408
  4012  2.1240e-03  3.3483e-04  1.3962e-04  2.0931e-03  2.4494e-04  9.3296e-05  0:00:58  407
  4013  2.1372e-03  3.3351e-04  1.3853e-04  2.1064e-03  2.4474e-04  9.2910e-05  0:00:47  406

  iter  continuity  x-velocity  y-velocity      energy           k       omega     time/iter
  4014  2.1503e-03  3.3320e-04  1.3731e-04  2.1194e-03  2.4449e-04  9.2525e-05  0:00:37  405
  4015  2.1631e-03  3.3336e-04  1.3617e-04  2.1322e-03  2.4419e-04  9.2110e-05  0:00:30  404
  4016  2.1758e-03  3.3326e-04  1.3518e-04  2.1448e-03  2.4386e-04  9.1706e-05  0:00:24  403
  4017  2.1882e-03  3.3267e-04  1.3450e-04  2.1572e-03  2.4347e-04  9.1286e-05  0:00:19  402
  4018  2.2004e-03  3.3184e-04  1.3395e-04  2.1693e-03  2.4306e-04  9.0870e-05  0:00:15  401
  4019  2.2124e-03  3.3162e-04  1.3344e-04  2.1813e-03  2.4262e-04  9.0474e-05  0:00:12  400
  4020  2.2242e-03  3.3273e-04  1.3281e-04  2.1931e-03  2.4213e-04  9.0103e-05  0:01:29  399
  4021  2.2358e-03  3.3316e-04  1.3212e-04  2.2046e-03  2.4157e-04  8.9715e-05  0:01:11  398
  4022  2.2473e-03  3.3387e-04  1.3174e-04  2.2160e-03  2.4096e-04  8.9333e-05  0:00:57  397
  4023  2.2585e-03  3.3467e-04  1.3132e-04  2.2272e-03  2.4032e-04  8.8962e-05  0:00:45  396
  4024  2.2694e-03  3.3410e-04  1.3046e-04  2.2381e-03  2.3964e-04  8.8602e-05  0:00:36  395

  iter  continuity  x-velocity  y-velocity      energy           k       omega     time/iter
  4025  2.2801e-03  3.3076e-04  1.2996e-04  2.2487e-03  2.3892e-04  8.8264e-05  0:00:29  394
  4026  2.2905e-03  3.2752e-04  1.2969e-04  2.2590e-03  2.3815e-04  8.7919e-05  0:00:23  393
  4027  2.3005e-03  3.2508e-04  1.2914e-04  2.2690e-03  2.3732e-04  8.7557e-05  0:00:18  392
  4028  2.3103e-03  3.2430e-04  1.2857e-04  2.2787e-03  2.3644e-04  8.7187e-05  0:00:15  391
  4029  2.3197e-03  3.2440e-04  1.2795e-04  2.2881e-03  2.3549e-04  8.6823e-05  0:00:12  390
  4030  2.3288e-03  3.2429e-04  1.2729e-04  2.2970e-03  2.3450e-04  8.6460e-05  0:00:09  389
  4031  2.3374e-03  3.2378e-04  1.2661e-04  2.3056e-03  2.3345e-04  8.6097e-05  0:01:25  388
  4032  2.3457e-03  3.2395e-04  1.2579e-04  2.3139e-03  2.3232e-04  8.5736e-05  0:01:08  387
  4033  2.3537e-03  3.2510e-04  1.2491e-04  2.3218e-03  2.3112e-04  8.5364e-05  0:00:54  386
  4034  2.3614e-03  3.2603e-04  1.2400e-04  2.3294e-03  2.2987e-04  8.4984e-05  0:00:43  385
  4035  2.3686e-03  3.2565e-04  1.2310e-04  2.3366e-03  2.2856e-04  8.4596e-05  0:00:34  384

  iter  continuity  x-velocity  y-velocity      energy           k       omega     time/iter
  4036  2.3756e-03  3.2334e-04  1.2232e-04  2.3435e-03  2.2721e-04  8.4220e-05  0:00:28  383
  4037  2.3822e-03  3.2040e-04  1.2128e-04  2.3500e-03  2.2583e-04  8.3858e-05  0:00:22  382
  4038  2.3885e-03  3.1821e-04  1.2029e-04  2.3562e-03  2.2443e-04  8.3515e-05  0:00:18  381
  4039  2.3945e-03  3.1743e-04  1.1945e-04  2.3622e-03  2.2304e-04  8.3199e-05  0:00:14  380
  4040  2.4002e-03  3.1702e-04  1.1858e-04  2.3678e-03  2.2161e-04  8.2881e-05  0:00:11  379
  4041  2.4055e-03  3.1403e-04  1.1787e-04  2.3730e-03  2.2015e-04  8.2574e-05  0:01:24  378
  4042  2.4104e-03  3.0975e-04  1.1716e-04  2.3779e-03  2.1865e-04  8.2256e-05  0:01:07  377
  4043  2.4149e-03  3.0636e-04  1.1646e-04  2.3823e-03  2.1714e-04  8.1931e-05  0:00:54  376
  4044  2.4191e-03  3.0456e-04  1.1575e-04  2.3864e-03  2.1558e-04  8.1592e-05  0:00:43  375
  4045  2.4229e-03  3.0385e-04  1.1491e-04  2.3901e-03  2.1401e-04  8.1227e-05  0:00:34  374
  4046  2.4263e-03  3.0482e-04  1.1414e-04  2.3934e-03  2.1240e-04  8.0836e-05  0:00:27  373

  iter  continuity  x-velocity  y-velocity      energy           k       omega     time/iter
  4047  2.4292e-03  3.0548e-04  1.1346e-04  2.3962e-03  2.1076e-04  8.0427e-05  0:00:22  372
  4048  2.4315e-03  3.0602e-04  1.1309e-04  2.3985e-03  2.0910e-04  8.0003e-05  0:00:17  371
  4049  2.4334e-03  3.0527e-04  1.1284e-04  2.4003e-03  2.0741e-04  7.9608e-05  0:00:14  370
  4050  2.4347e-03  3.0191e-04  1.1235e-04  2.4016e-03  2.0573e-04  7.9232e-05  0:00:11  369
  4051  2.4355e-03  2.9658e-04  1.1170e-04  2.4022e-03  2.0403e-04  7.8856e-05  0:01:22  368
  4052  2.4358e-03  2.9278e-04  1.1059e-04  2.4025e-03  2.0232e-04  7.8503e-05  0:01:06  367
  4053  2.4357e-03  2.9209e-04  1.0939e-04  2.4023e-03  2.0059e-04  7.8151e-05  0:00:52  366
  4054  2.4350e-03  2.9152e-04  1.0835e-04  2.4016e-03  1.9884e-04  7.7777e-05  0:00:42  365
  4055  2.4340e-03  2.8959e-04  1.0744e-04  2.4004e-03  1.9706e-04  7.7414e-05  0:00:33  364
  4056  2.4325e-03  2.8956e-04  1.0653e-04  2.3988e-03  1.9527e-04  7.7036e-05  0:00:27  363
  4057  2.4303e-03  2.8975e-04  1.0579e-04  2.3966e-03  1.9349e-04  7.6669e-05  0:00:21  362

  iter  continuity  x-velocity  y-velocity      energy           k       omega     time/iter
  4058  2.4276e-03  2.9072e-04  1.0515e-04  2.3938e-03  1.9170e-04  7.6287e-05  0:00:17  361
  4059  2.4245e-03  2.9151e-04  1.0462e-04  2.3907e-03  1.8988e-04  7.5907e-05  0:00:14  360
  4060  2.4210e-03  2.9454e-04  1.0429e-04  2.3870e-03  1.8806e-04  7.5545e-05  0:00:11  359
  4061  2.4169e-03  2.9604e-04  1.0414e-04  2.3828e-03  1.8623e-04  7.5215e-05  0:00:09  358
  4062  2.4122e-03  2.9586e-04  1.0383e-04  2.3781e-03  1.8439e-04  7.4892e-05  0:01:18  357
  4063  2.4071e-03  2.9692e-04  1.0368e-04  2.3729e-03  1.8254e-04  7.4565e-05  0:01:02  356
  4064  2.4016e-03  3.0059e-04  1.0347e-04  2.3673e-03  1.8067e-04  7.4228e-05  0:00:50  355
  4065  2.3954e-03  3.0072e-04  1.0346e-04  2.3612e-03  1.7879e-04  7.3873e-05  0:00:40  354
  4066  2.3887e-03  2.9559e-04  1.0330e-04  2.3544e-03  1.7691e-04  7.3533e-05  0:00:32  353
  4067  2.3816e-03  2.9222e-04  1.0289e-04  2.3473e-03  1.7503e-04  7.3239e-05  0:00:25  352
  4068  2.3740e-03  2.9072e-04  1.0243e-04  2.3398e-03  1.7314e-04  7.2927e-05  0:00:20  351

  iter  continuity  x-velocity  y-velocity      energy           k       omega     time/iter
  4069  2.3661e-03  2.9008e-04  1.0190e-04  2.3318e-03  1.7123e-04  7.2603e-05  0:00:16  350
  4070  2.3576e-03  2.8437e-04  1.0140e-04  2.3234e-03  1.6931e-04  7.2283e-05  0:00:13  349
  4071  2.3489e-03  2.7673e-04  1.0066e-04  2.3147e-03  1.6737e-04  7.1968e-05  0:01:20  348
  4072  2.3397e-03  2.6980e-04  1.0015e-04  2.3055e-03  1.6544e-04  7.1678e-05  0:01:04  347
  4073  2.3302e-03  2.6310e-04  9.9611e-05  2.2960e-03  1.6350e-04  7.1386e-05  0:00:51  346
  4074  2.3204e-03  2.5703e-04  9.9186e-05  2.2861e-03  1.6155e-04  7.1103e-05  0:00:41  345
  4075  2.3103e-03  2.5098e-04  9.8893e-05  2.2760e-03  1.5961e-04  7.0845e-05  0:00:32  344
  4076  2.3000e-03  2.4867e-04  9.8533e-05  2.2656e-03  1.5766e-04  7.0602e-05  0:00:26  343
  4077  2.2894e-03  2.4891e-04  9.8126e-05  2.2550e-03  1.5573e-04  7.0388e-05  0:00:21  342
  4078  2.2785e-03  2.5081e-04  9.7786e-05  2.2441e-03  1.5381e-04  7.0195e-05  0:00:16  341
  4079  2.2673e-03  2.5239e-04  9.7514e-05  2.2328e-03  1.5192e-04  7.0009e-05  0:00:13  340

  iter  continuity  x-velocity  y-velocity      energy           k       omega     time/iter
  4080  2.2557e-03  2.5521e-04  9.7391e-05  2.2211e-03  1.5006e-04  6.9838e-05  0:00:10  339
  4081  2.2436e-03  2.5691e-04  9.7259e-05  2.2091e-03  1.4824e-04  6.9728e-05  0:01:16  338
  4082  2.2313e-03  2.5326e-04  9.6988e-05  2.1967e-03  1.4644e-04  6.9609e-05  0:01:01  337
  4083  2.2183e-03  2.5108e-04  9.6623e-05  2.1838e-03  1.4466e-04  6.9493e-05  0:00:48  336
  4084  2.2052e-03  2.5204e-04  9.6131e-05  2.1707e-03  1.4291e-04  6.9397e-05  0:00:39  335
  4085  2.1917e-03  2.5182e-04  9.5827e-05  2.1573e-03  1.4120e-04  6.9304e-05  0:00:31  334
  4086  2.1781e-03  2.5599e-04  9.5863e-05  2.1437e-03  1.3952e-04  6.9210e-05  0:00:25  333
  4087  2.1642e-03  2.6490e-04  9.6197e-05  2.1299e-03  1.3788e-04  6.9115e-05  0:00:20  332
  4088  2.1499e-03  2.7333e-04  9.6438e-05  2.1157e-03  1.3626e-04  6.9031e-05  0:00:16  331
  4089  2.1352e-03  2.7676e-04  9.6723e-05  2.1011e-03  1.3468e-04  6.8945e-05  0:00:12  330
  4090  2.1202e-03  2.7926e-04  9.7235e-05  2.0861e-03  1.3312e-04  6.8855e-05  0:00:10  329

  iter  continuity  x-velocity  y-velocity      energy           k       omega     time/iter
  4091  2.1050e-03  2.8502e-04  9.7666e-05  2.0710e-03  1.3161e-04  6.8768e-05  0:00:08  328
  4092  2.0896e-03  2.8706e-04  9.7499e-05  2.0557e-03  1.3017e-04  6.8692e-05  0:01:12  327
  4093  2.0739e-03  2.7986e-04  9.6898e-05  2.0400e-03  1.2880e-04  6.8608e-05  0:00:57  326
  4094  2.0580e-03  2.7675e-04  9.6051e-05  2.0241e-03  1.2754e-04  6.8542e-05  0:00:46  325
  4095  2.0419e-03  2.7150e-04  9.5434e-05  2.0079e-03  1.2637e-04  6.8470e-05  0:00:36  324
  4096  2.0256e-03  2.6935e-04  9.4947e-05  1.9916e-03  1.2529e-04  6.8392e-05  0:00:29  323
  4097  2.0094e-03  2.7288e-04  9.5196e-05  1.9753e-03  1.2426e-04  6.8303e-05  0:00:23  322
  4098  1.9930e-03  2.7490e-04  9.6103e-05  1.9588e-03  1.2332e-04  6.8219e-05  0:00:18  321
  4099  1.9758e-03  2.6485e-04  9.6900e-05  1.9416e-03  1.2249e-04  6.8143e-05  0:00:15  320
  4100  1.9585e-03  2.5996e-04  9.6436e-05  1.9244e-03  1.2178e-04  6.8095e-05  0:00:12  319
  4101  1.9410e-03  2.5680e-04  9.5893e-05  1.9069e-03  1.2118e-04  6.8094e-05  0:00:09  318

  iter  continuity  x-velocity  y-velocity      energy           k       omega     time/iter
  4102  1.9231e-03  2.5345e-04  9.5340e-05  1.8892e-03  1.2067e-04  6.8109e-05  0:01:11  317
  4103  1.9052e-03  2.5248e-04  9.5290e-05  1.8714e-03  1.2023e-04  6.8124e-05  0:00:57  316
  4104  1.8872e-03  2.4364e-04  9.5027e-05  1.8534e-03  1.1990e-04  6.8125e-05  0:00:45  315
  4105  1.8690e-03  2.4129e-04  9.4864e-05  1.8353e-03  1.1968e-04  6.8112e-05  0:00:36  314
  4106  1.8512e-03  2.5163e-04  9.5117e-05  1.8176e-03  1.1955e-04  6.8090e-05  0:00:29  313
  4107  1.8330e-03  2.5888e-04  9.6010e-05  1.7995e-03  1.1952e-04  6.8083e-05  0:00:23  312
  4108  1.8149e-03  2.6745e-04  9.6757e-05  1.7815e-03  1.1960e-04  6.8082e-05  0:00:18  311
  4109  1.7967e-03  2.7794e-04  9.7390e-05  1.7634e-03  1.1983e-04  6.8097e-05  0:00:15  310
  4110  1.7781e-03  2.7796e-04  9.7771e-05  1.7448e-03  1.2021e-04  6.8137e-05  0:01:13  309
  4111  1.7598e-03  2.8562e-04  9.7953e-05  1.7266e-03  1.2076e-04  6.8193e-05  0:00:59  308
  4112  1.7413e-03  2.9017e-04  9.8901e-05  1.7082e-03  1.2144e-04  6.8273e-05  0:00:47  307

  iter  continuity  x-velocity  y-velocity      energy           k       omega     time/iter
  4113  1.7225e-03  2.8575e-04  9.9774e-05  1.6895e-03  1.2219e-04  6.8379e-05  0:00:37  306
  4114  1.7042e-03  2.9211e-04  9.9789e-05  1.6714e-03  1.2302e-04  6.8501e-05  0:00:30  305
  4115  1.6862e-03  2.9740e-04  9.9608e-05  1.6533e-03  1.2392e-04  6.8632e-05  0:00:24  304
  4116  1.6678e-03  2.9375e-04  9.8742e-05  1.6349e-03  1.2490e-04  6.8791e-05  0:00:19  303
  4117  1.6495e-03  2.8925e-04  9.8321e-05  1.6165e-03  1.2594e-04  6.8951e-05  0:00:15  302
  4118  1.6313e-03  2.8596e-04  9.8110e-05  1.5982e-03  1.2707e-04  6.9112e-05  0:00:12  301
  4119  1.6135e-03  2.9625e-04  9.9165e-05  1.5803e-03  1.2830e-04  6.9287e-05  0:00:10  300
  4120  1.5953e-03  2.9615e-04  1.0025e-04  1.5620e-03  1.2959e-04  6.9436e-05  0:01:07  299
  4121  1.5766e-03  2.9334e-04  1.0122e-04  1.5434e-03  1.3094e-04  6.9558e-05  0:00:54  298
  4122  1.5574e-03  2.8169e-04  1.0176e-04  1.5244e-03  1.3234e-04  6.9657e-05  0:00:43  297
  4123  1.5387e-03  2.7423e-04  1.0138e-04  1.5058e-03  1.3378e-04  6.9757e-05  0:00:34  296

  iter  continuity  x-velocity  y-velocity      energy           k       omega     time/iter
  4124  1.5201e-03  2.7215e-04  1.0118e-04  1.4875e-03  1.3526e-04  6.9858e-05  0:00:27  295
  4125  1.5017e-03  2.7103e-04  1.0081e-04  1.4692e-03  1.3675e-04  6.9941e-05  0:00:22  294
  4126  1.4833e-03  2.6758e-04  1.0109e-04  1.4508e-03  1.3824e-04  7.0015e-05  0:00:17  293
  4127  1.4651e-03  2.6735e-04  1.0156e-04  1.4327e-03  1.3973e-04  7.0058e-05  0:00:14  292
  4128  1.4471e-03  2.6868e-04  1.0237e-04  1.4146e-03  1.4123e-04  7.0099e-05  0:00:11  291
  4129  1.4292e-03  2.6873e-04  1.0320e-04  1.3967e-03  1.4274e-04  7.0159e-05  0:00:09  290
  4130  1.4115e-03  2.7311e-04  1.0386e-04  1.3789e-03  1.4425e-04  7.0218e-05  0:00:07  289
  4131  1.3940e-03  2.7752e-04  1.0357e-04  1.3614e-03  1.4575e-04  7.0310e-05  0:01:03  288
  4132  1.3767e-03  2.8428e-04  1.0300e-04  1.3442e-03  1.4724e-04  7.0426e-05  0:00:50  287
  4133  1.3597e-03  2.9346e-04  1.0335e-04  1.3272e-03  1.4870e-04  7.0549e-05  0:00:40  286
  4134  1.3431e-03  3.0137e-04  1.0416e-04  1.3107e-03  1.5014e-04  7.0675e-05  0:00:32  285

  iter  continuity  x-velocity  y-velocity      energy           k       omega     time/iter
  4135  1.3269e-03  3.1031e-04  1.0426e-04  1.2946e-03  1.5156e-04  7.0827e-05  0:00:26  284
  4136  1.3115e-03  3.2749e-04  1.0517e-04  1.2793e-03  1.5295e-04  7.0978e-05  0:00:20  283
  4137  1.2959e-03  3.2586e-04  1.0471e-04  1.2637e-03  1.5429e-04  7.1078e-05  0:00:16  282
  4138  1.2804e-03  3.2336e-04  1.0415e-04  1.2483e-03  1.5561e-04  7.1163e-05  0:00:13  281
  4139  1.2656e-03  3.2065e-04  1.0331e-04  1.2334e-03  1.5691e-04  7.1270e-05  0:00:10  280
  4140  1.2512e-03  3.1757e-04  1.0330e-04  1.2188e-03  1.5819e-04  7.1344e-05  0:00:08  279
  4141  1.2369e-03  3.0653e-04  1.0460e-04  1.2043e-03  1.5945e-04  7.1409e-05  0:01:02  278
  4142  1.2235e-03  3.1041e-04  1.0598e-04  1.1908e-03  1.6069e-04  7.1499e-05  0:00:50  277
  4143  1.2116e-03  3.3312e-04  1.0669e-04  1.1787e-03  1.6192e-04  7.1586e-05  0:00:39  276
  4144  1.1989e-03  3.4501e-04  1.0823e-04  1.1658e-03  1.6312e-04  7.1653e-05  0:00:31  275
  4145  1.1841e-03  3.3397e-04  1.0822e-04  1.1512e-03  1.6430e-04  7.1691e-05  0:00:25  274

  iter  continuity  x-velocity  y-velocity      energy           k       omega     time/iter
  4146  1.1693e-03  3.1811e-04  1.0828e-04  1.1367e-03  1.6547e-04  7.1742e-05  0:00:20  273
  4147  1.1551e-03  3.0137e-04  1.0850e-04  1.1227e-03  1.6663e-04  7.1797e-05  0:00:16  272
  4148  1.1424e-03  2.9557e-04  1.0886e-04  1.1100e-03  1.6777e-04  7.1871e-05  0:00:13  271
  4149  1.1309e-03  3.0052e-04  1.0950e-04  1.0983e-03  1.6890e-04  7.1962e-05  0:00:10  270
  4150  1.1195e-03  2.9947e-04  1.1050e-04  1.0867e-03  1.7000e-04  7.2037e-05  0:00:08  269
  4151  1.1085e-03  3.0215e-04  1.1165e-04  1.0754e-03  1.7108e-04  7.2114e-05  0:01:00  268
  4152  1.0982e-03  3.0981e-04  1.1219e-04  1.0649e-03  1.7214e-04  7.2190e-05  0:00:48  267
  4153  1.0877e-03  3.1354e-04  1.1246e-04  1.0543e-03  1.7316e-04  7.2262e-05  0:00:38  266
  4154  1.0773e-03  3.1296e-04  1.1251e-04  1.0439e-03  1.7417e-04  7.2361e-05  0:00:30  265
  4155  1.0670e-03  3.1050e-04  1.1230e-04  1.0336e-03  1.7512e-04  7.2472e-05  0:00:24  264
  4156  1.0577e-03  3.1330e-04  1.1188e-04  1.0244e-03  1.7602e-04  7.2550e-05  0:00:19  263

  iter  continuity  x-velocity  y-velocity      energy           k       omega     time/iter
  4157  1.0491e-03  3.1553e-04  1.1127e-04  1.0158e-03  1.7686e-04  7.2643e-05  0:00:15  262
  4158  1.0414e-03  3.2367e-04  1.1156e-04  1.0082e-03  1.7763e-04  7.2711e-05  0:00:12  261
  4159  1.0341e-03  3.3404e-04  1.1188e-04  1.0010e-03  1.7835e-04  7.2732e-05  0:00:10  260
  4160  1.0267e-03  3.3198e-04  1.1217e-04  9.9368e-04  1.7903e-04  7.2716e-05  0:00:08  259
  4161  1.0207e-03  3.3905e-04  1.1214e-04  9.8774e-04  1.7965e-04  7.2686e-05  0:00:06  258
  4162  1.0142e-03  3.3458e-04  1.1265e-04  9.8128e-04  1.8026e-04  7.2674e-05  0:00:56  257
  4163  1.0079e-03  3.2933e-04  1.1361e-04  9.7508e-04  1.8084e-04  7.2656e-05  0:00:45  256
  4164  1.0032e-03  3.3223e-04  1.1404e-04  9.7045e-04  1.8138e-04  7.2626e-05  0:00:36  255
  4165  9.9941e-04  3.4061e-04  1.1403e-04  9.6680e-04  1.8189e-04  7.2602e-05  0:00:29  254
! 4165 solution is converged

> /plot/plot yes loading.txt yes no no absolute-pressure yes 1 0 upper-blade ()

> exit 
Posting ANSYS Product Improvement Program performance data 
Done.
yes
