
              Welcome to ANSYS Fluent 2021 R2

              Copyright 1987-2021 ANSYS, Inc. All Rights Reserved.
              Unauthorized use, distribution or duplication is prohibited.
              This product is subject to U.S. laws governing export and re-export.
              For full Legal Notice, see documentation.

Build Time: May 28 2021 13:54:56 EDT  Build Id: 10201  
 

     --------------------------------------------------------------
     This is an academic version of ANSYS FLUENT. Usage of this product
     license is limited to the terms and conditions specified in your ANSYS
     license form, additional terms section.
     --------------------------------------------------------------
Host spawning Node 0 on machine "WL-CH-009" (win64).

-------------------------------------------------------------------------------
ID    Hostname   Core   O.S.         PID    Vendor                       
-------------------------------------------------------------------------------
n31   WL-CH-009  32/36  Windows-x64  28636  Intel(R) Xeon(R) W-2295      
n30   WL-CH-009  31/36  Windows-x64  13764  Intel(R) Xeon(R) W-2295      
n29   WL-CH-009  30/36  Windows-x64  36508  Intel(R) Xeon(R) W-2295      
n28   WL-CH-009  29/36  Windows-x64  34452  Intel(R) Xeon(R) W-2295      
n27   WL-CH-009  28/36  Windows-x64  44244  Intel(R) Xeon(R) W-2295      
n26   WL-CH-009  27/36  Windows-x64  31000  Intel(R) Xeon(R) W-2295      
n25   WL-CH-009  26/36  Windows-x64  42396  Intel(R) Xeon(R) W-2295      
n24   WL-CH-009  25/36  Windows-x64  41268  Intel(R) Xeon(R) W-2295      
n23   WL-CH-009  24/36  Windows-x64  43568  Intel(R) Xeon(R) W-2295      
n22   WL-CH-009  23/36  Windows-x64  45444  Intel(R) Xeon(R) W-2295      
n21   WL-CH-009  22/36  Windows-x64  35680  Intel(R) Xeon(R) W-2295      
n20   WL-CH-009  21/36  Windows-x64  34864  Intel(R) Xeon(R) W-2295      
n19   WL-CH-009  20/36  Windows-x64  14412  Intel(R) Xeon(R) W-2295      
n18   WL-CH-009  19/36  Windows-x64  34732  Intel(R) Xeon(R) W-2295      
n17   WL-CH-009  18/36  Windows-x64  18444  Intel(R) Xeon(R) W-2295      
n16   WL-CH-009  17/36  Windows-x64  43452  Intel(R) Xeon(R) W-2295      
n15   WL-CH-009  16/36  Windows-x64  23676  Intel(R) Xeon(R) W-2295      
n14   WL-CH-009  15/36  Windows-x64  41636  Intel(R) Xeon(R) W-2295      
n13   WL-CH-009  14/36  Windows-x64  12376  Intel(R) Xeon(R) W-2295      
n12   WL-CH-009  13/36  Windows-x64  42852  Intel(R) Xeon(R) W-2295      
-------------------------------------------------------------------------------
ID    Hostname   Core   O.S.         PID    Vendor                       
-------------------------------------------------------------------------------
n11   WL-CH-009  12/36  Windows-x64  32436  Intel(R) Xeon(R) W-2295      
n10   WL-CH-009  11/36  Windows-x64  26516  Intel(R) Xeon(R) W-2295      
n9    WL-CH-009  10/36  Windows-x64  13232  Intel(R) Xeon(R) W-2295      
n8    WL-CH-009  9/36   Windows-x64  17180  Intel(R) Xeon(R) W-2295      
n7    WL-CH-009  8/36   Windows-x64  22856  Intel(R) Xeon(R) W-2295      
n6    WL-CH-009  7/36   Windows-x64  37800  Intel(R) Xeon(R) W-2295      
n5    WL-CH-009  6/36   Windows-x64  19280  Intel(R) Xeon(R) W-2295      
n4    WL-CH-009  5/36   Windows-x64  22760  Intel(R) Xeon(R) W-2295      
n3    WL-CH-009  4/36   Windows-x64  29688  Intel(R) Xeon(R) W-2295      
n2    WL-CH-009  3/36   Windows-x64  39700  Intel(R) Xeon(R) W-2295      
n1    WL-CH-009  2/36   Windows-x64  38372  Intel(R) Xeon(R) W-2295      
n0*   WL-CH-009  1/36   Windows-x64  39828  Intel(R) Xeon(R) W-2295      
host  WL-CH-009         Windows-x64  40188  Intel(R) Xeon(R) W-2295      

MPI Option Selected: intel
Selected system interconnect: default
-------------------------------------------------------------------------------

Cleanup script file is E:\\MATLAB\\RANS_optimisation\\cleanup-fluent-WL-CH-009-40188.bat

Posting ANSYS Product Improvement Program startup data
Done.

Reading journal file E:\MATLAB\RANS_optimisation\run8\fluent_input.jou...

> /sync-chdir E:\MATLAB\RANS_optimisation\run8

> /file/read-case "grid.msh"
Reading "grid.msh"...

Buffering for file scan...

  112722 quadrilateral cells, zone  9.
  224998 2D interior faces, zone  2.
Warning: Reversing 238 faces, zone  2.
     237 2D pressure-inlet faces, zone  3.
Warning: Reversing 237 faces, zone  3.
     477 2D pressure-outlet faces, zone  4.
Warning: Reversing 477 faces, zone  4.
     477 2D pressure-outlet faces, zone  5.
     207 2D pressure-outlet faces, zone  6.
     253 2D wall faces, zone  7.
Warning: Reversing 15 faces, zone  7.
     253 2D wall faces, zone  8.
Warning: Reversing 223 faces, zone  8.
  113674 nodes.

Building...
     mesh
	auto partitioning mesh by Metis (fast),
	distributing mesh
		parts................................,
		faces................................,
		nodes................................,
		cells................................,
        bandwidth reduction using Reverse Cuthill-McKee: 2716/83 = 32.7229
     materials,
     interface,
     domains,
     zones,
	fluid-9
	wall-8
	wall-7
	pressure-outlet-6
	pressure-outlet-5
	pressure-outlet-4
	pressure-inlet-3
	interior-2
     parallel,
Done.

Preparing mesh for display...
Done.
 

> /define/boundary-conditions/modify-zones/zone-name 3 inlet 

> /define/boundary-conditions/modify-zones/zone-name 4 upper 

> /define/boundary-conditions/modify-zones/zone-name 5 lower 

> /define/boundary-conditions/modify-zones/zone-name 6 outlet

> /define/boundary-conditions/modify-zones/zone-name 7 upper-blade

> /define/boundary-conditions/modify-zones/zone-name 8 lower-blade

> /define/materials/change-create air air air is a fluid
yes 
Density
ideal-gas no data required.

yes 
Cp (Specific Heat)
constant 1005 
yes 
Thermal Conductivity
expression "DynamicViscosity*1005 [J/(kg K)]/0.72"
 yes 
Viscosity
sutherland three-coefficient-method 5.83247e-04 273 110.4 
no no no

Note: Enabling energy equation as required by material density method.

> /define/operating-conditions/operating-pressure 0

> /define/models/viscous/kw-sst? yes

> /define/boundary-conditions/zone-type inlet pressure-inlet 

> /define/boundary-conditions/pressure-inlet (inlet)
inlet yes no 74575.2 no 46984 no 300 no yes no no yes 0.5 1

> /define/boundary-conditions/zone-type outlet pressure-outlet 

> /define/boundary-conditions/bc-settings/pressure-outlet 0. 65 

> /define/boundary-conditions/pressure-outlet (outlet upper lower)
outlet yes no 46984 no 300 no yes no no yes 0.5 1 yes no no

> /define/boundary-conditions/copy-bc outlet (upper lower)Copy outlet boundary conditions to lower
Copy outlet boundary conditions to upper


> /define/boundary-conditions/wall (upper-blade lower-blade)
upper-blade 0 no 0 no no no 0 no no no no 0 no 0.5 no 1

> /define/boundary-conditions/copy-bc upper-blade (lower-blade)Copy upper-blade boundary conditions to lower-blade


> /define/models/solver/densit-based-implicit yes

> /file/read-data E:\MATLAB\RANS_optimisation\clean.dat

Reading "E:\MATLAB\RANS_optimisation\clean.dat"...



Warning: case and data files are inconsistent; zone 7, case [1399,1651], data [1399,1652]
Warning: case and data files are inconsistent; zone 8, case [1652,1904], data [1653,1904]
Warning: case and data files are inconsistent; zone 7, case [1399,1651], data [1399,1652]
Warning: case and data files are inconsistent; zone 8, case [1652,1904], data [1653,1904]
Warning: case and data files are inconsistent; zone 7, case [1399,1651], data [1399,1652]
Warning: case and data files are inconsistent; zone 8, case [1652,1904], data [1653,1904]
Warning: case and data files are inconsistent; zone 7, case [1399,1651], data [1399,1652]
Warning: case and data files are inconsistent; zone 8, case [1652,1904], data [1653,1904]
Warning: case and data files are inconsistent; zone 7, case [1399,1651], data [1399,1652]
Warning: case and data files are inconsistent; zone 8, case [1652,1904], data [1653,1904]
Warning: case and data files are inconsistent; zone 7, case [1399,1651], data [1399,1652]
Warning: case and data files are inconsistent; zone 8, case [1652,1904], data [1653,1904]
Warning: case and data files are inconsistent; zone 7, case [1399,1651], data [1399,1652]
Warning: case and data files are inconsistent; zone 8, case [1652,1904], data [1653,1904]
Warning: case and data files are inconsistent; zone 7, case [1399,1651], data [1399,1652]
Warning: case and data files are inconsistent; zone 8, case [1652,1904], data [1653,1904]
Warning: case and data files are inconsistent; zone 7, case [1399,1651], data [1399,1652]
Warning: case and data files are inconsistent; zone 8, case [1652,1904], data [1653,1904]
Warning: case and data files are inconsistent; zone 7, case [1399,1651], data [1399,1652]
Warning: case and data files are inconsistent; zone 8, case [1652,1904], data [1653,1904]
Warning: case and data files are inconsistent; zone 7, case [1399,1651], data [1399,1652]
Warning: case and data files are inconsistent; zone 8, case [1652,1904], data [1653,1904]
Warning: case and data files are inconsistent; zone 7, case [1399,1651], data [1399,1652]
Warning: case and data files are inconsistent; zone 8, case [1652,1904], data [1653,1904]
Warning: case and data files are inconsistent; zone 7, case [1399,1651], data [1399,1652]
Warning: case and data files are inconsistent; zone 8, case [1652,1904], data [1653,1904]
Parallel variables...
Done.

> ;/solve/initialize/initialize-flow
;/solve/initialize/compute-defaults/pressure-inlet inlet
;/solve/initialize/initialize-flow yes
;/solve/initialize/hyb-initialization
/solve/iterate 2000

  iter  continuity  x-velocity  y-velocity      energy           k       omega     time/iter
  2419  9.9521e-04  3.5719e-04  6.8654e-05  9.7828e-04  1.7105e-04  4.2984e-05  0:00:00 2000
  2420  9.1139e-02  6.1445e-02  5.4856e-02  9.1143e-02  4.0505e-03  1.5177e-02  0:00:00 1999
  2421  7.7418e-02  4.6790e-02  5.3108e-02  7.7914e-02  3.8806e-03  9.5736e-03  0:00:00 1998
  2422  5.9148e-02  3.2511e-02  5.1394e-02  5.9543e-02  3.6918e-03  7.7494e-03  0:00:00 1997
  2423  4.4335e-02  2.4041e-02  4.5192e-02  4.4165e-02  3.5031e-03  6.5342e-03  0:00:00 1996
  2424  3.4579e-02  1.9962e-02  3.6882e-02  3.4033e-02  3.3135e-03  5.9828e-03  0:00:00 1995
  2425  2.8595e-02  1.7895e-02  2.8834e-02  2.8035e-02  3.1230e-03  5.4413e-03  0:33:14 1994
  2426  2.4958e-02  1.6410e-02  2.2352e-02  2.4566e-02  2.9372e-03  4.8629e-03  0:26:34 1993
  2427  2.2724e-02  1.5048e-02  1.7699e-02  2.2517e-02  2.7576e-03  4.3407e-03  0:21:15 1992
  2428  2.1261e-02  1.3714e-02  1.4629e-02  2.1190e-02  2.5931e-03  3.8722e-03  0:16:59 1991
  2429  2.0131e-02  1.2395e-02  1.2706e-02  2.0138e-02  2.4453e-03  3.4070e-03  0:13:35 1990

  iter  continuity  x-velocity  y-velocity      energy           k       omega     time/iter
  2430  1.9085e-02  1.1105e-02  1.1527e-02  1.9124e-02  2.3128e-03  2.9982e-03  0:10:52 1989
  2431  1.8001e-02  9.8829e-03  1.0757e-02  1.8039e-02  2.1973e-03  2.6769e-03  0:08:41 1988
  2432  1.6887e-02  8.7752e-03  1.0161e-02  1.6900e-02  2.0966e-03  2.4815e-03  0:06:57 1987
  2433  1.5813e-02  7.8307e-03  9.6231e-03  1.5792e-02  2.0091e-03  2.3361e-03  0:05:33 1986
  2434  1.4808e-02  7.0540e-03  9.0981e-03  1.4745e-02  1.9317e-03  2.2191e-03  0:04:26 1985
  2435  1.3883e-02  6.4793e-03  8.5427e-03  1.3773e-02  1.8625e-03  2.1419e-03  0:03:33 1984
  2436  1.3037e-02  6.1274e-03  7.9851e-03  1.2881e-02  1.8003e-03  2.1115e-03  0:09:27 1983
  2437  1.2286e-02  5.9620e-03  7.4573e-03  1.2088e-02  1.7429e-03  2.0908e-03  0:07:33 1982
  2438  1.1620e-02  5.9649e-03  6.9689e-03  1.1385e-02  1.6896e-03  2.0686e-03  0:06:02 1981
  2439  1.1056e-02  6.0589e-03  6.5319e-03  1.0791e-02  1.6399e-03  2.0613e-03  0:04:50 1980
  2440  1.0580e-02  6.1782e-03  6.1579e-03  1.0288e-02  1.5932e-03  2.0528e-03  0:03:52 1979

  iter  continuity  x-velocity  y-velocity      energy           k       omega     time/iter
  2441  1.0199e-02  6.2925e-03  5.8348e-03  9.8819e-03  1.5505e-03  2.0377e-03  0:03:05 1978
  2442  9.9467e-03  6.3764e-03  5.5808e-03  9.6063e-03  1.5126e-03  2.0210e-03  0:02:28 1977
  2443  9.8684e-03  6.4277e-03  5.3975e-03  9.5070e-03  1.4780e-03  1.9978e-03  0:01:58 1976
  2444  1.0025e-02  6.4451e-03  5.2633e-03  9.6474e-03  1.4466e-03  1.9778e-03  0:01:35 1975
  2445  1.0444e-02  6.4404e-03  5.1650e-03  1.0057e-02  1.4194e-03  1.9638e-03  0:07:51 1974
  2446  1.1121e-02  6.4156e-03  5.0868e-03  1.0729e-02  1.3959e-03  1.9449e-03  0:06:16 1973
  2447  1.2020e-02  6.3867e-03  5.0198e-03  1.1627e-02  1.3758e-03  1.9231e-03  0:05:01 1972
  2448  1.3086e-02  6.3564e-03  4.9403e-03  1.2694e-02  1.3605e-03  1.9019e-03  0:04:01 1971
  2449  1.4273e-02  6.3293e-03  4.8508e-03  1.3883e-02  1.3478e-03  1.8798e-03  0:03:12 1970
  2450  1.5542e-02  6.3030e-03  4.7572e-03  1.5155e-02  1.3390e-03  1.8602e-03  0:02:34 1969
  2451  1.6821e-02  6.2796e-03  4.6439e-03  1.6437e-02  1.3323e-03  1.8436e-03  0:02:03 1968

  iter  continuity  x-velocity  y-velocity      energy           k       omega     time/iter
  2452  1.8036e-02  6.2603e-03  4.4838e-03  1.7657e-02  1.3270e-03  1.8269e-03  0:01:38 1967
  2453  1.9133e-02  6.2512e-03  4.3189e-03  1.8759e-02  1.3230e-03  1.8169e-03  0:01:19 1966
  2454  2.0094e-02  6.2549e-03  4.1459e-03  1.9729e-02  1.3196e-03  1.8110e-03  0:01:03 1965
  2455  2.0942e-02  6.2702e-03  3.9654e-03  2.0587e-02  1.3166e-03  1.8130e-03  0:07:23 1964
  2456  2.1649e-02  6.2910e-03  3.7843e-03  2.1307e-02  1.3141e-03  1.8162e-03  0:05:54 1963
  2457  2.2206e-02  6.3051e-03  3.6324e-03  2.1879e-02  1.3120e-03  1.8184e-03  0:04:43 1962
  2458  2.2604e-02  6.3122e-03  3.4854e-03  2.2293e-02  1.3104e-03  1.8191e-03  0:03:47 1961
  2459  2.2798e-02  6.2879e-03  3.3193e-03  2.2503e-02  1.3092e-03  1.8193e-03  0:03:01 1960
  2460  2.2801e-02  6.2484e-03  3.1933e-03  2.2522e-02  1.3084e-03  1.8183e-03  0:02:25 1959
  2461  2.2648e-02  6.1826e-03  3.1101e-03  2.2385e-02  1.3083e-03  1.8155e-03  0:01:56 1958
  2462  2.2364e-02  6.1042e-03  3.0650e-03  2.2117e-02  1.3083e-03  1.8120e-03  0:01:33 1957

  iter  continuity  x-velocity  y-velocity      energy           k       omega     time/iter
  2463  2.1981e-02  6.0228e-03  3.0500e-03  2.1750e-02  1.3093e-03  1.8081e-03  0:01:14 1956
  2464  2.1513e-02  5.9438e-03  3.0350e-03  2.1299e-02  1.3100e-03  1.8018e-03  0:00:59 1955
  2465  2.0957e-02  5.8637e-03  3.0261e-03  2.0759e-02  1.3119e-03  1.7945e-03  0:07:18 1954
  2466  2.0317e-02  5.7741e-03  3.0368e-03  2.0134e-02  1.3133e-03  1.7865e-03  0:05:50 1953
  2467  1.9607e-02  5.6608e-03  3.0419e-03  1.9435e-02  1.3156e-03  1.7812e-03  0:04:40 1952
  2468  1.8840e-02  5.5447e-03  3.0516e-03  1.8679e-02  1.3179e-03  1.7777e-03  0:03:44 1951
  2469  1.8035e-02  5.4217e-03  3.0791e-03  1.7881e-02  1.3203e-03  1.7779e-03  0:02:59 1950
  2470  1.7208e-02  5.2935e-03  3.0999e-03  1.7061e-02  1.3220e-03  1.7711e-03  0:02:23 1949
  2471  1.6381e-02  5.1774e-03  3.1079e-03  1.6240e-02  1.3240e-03  1.7531e-03  0:01:55 1948
  2472  1.5556e-02  5.0620e-03  3.0954e-03  1.5420e-02  1.3264e-03  1.7298e-03  0:01:32 1947
  2473  1.4752e-02  4.9537e-03  3.0923e-03  1.4621e-02  1.3290e-03  1.7185e-03  0:01:13 1946

  iter  continuity  x-velocity  y-velocity      energy           k       omega     time/iter
  2474  1.3939e-02  4.8531e-03  3.0902e-03  1.3811e-02  1.3315e-03  1.7046e-03  0:00:59 1945
  2475  1.3135e-02  4.7427e-03  3.0713e-03  1.3007e-02  1.3344e-03  1.6903e-03  0:07:16 1944
  2476  1.2359e-02  4.6441e-03  3.0438e-03  1.2228e-02  1.3383e-03  1.6753e-03  0:05:48 1943
  2477  1.1657e-02  4.5515e-03  3.0236e-03  1.1524e-02  1.3430e-03  1.6622e-03  0:04:38 1942
  2478  1.1033e-02  4.4571e-03  2.9984e-03  1.0901e-02  1.3496e-03  1.6510e-03  0:03:43 1941
  2479  1.0491e-02  4.3771e-03  2.9674e-03  1.0362e-02  1.3565e-03  1.6362e-03  0:02:58 1940
  2480  1.0023e-02  4.2965e-03  2.9349e-03  9.8967e-03  1.3640e-03  1.6180e-03  0:02:22 1939
  2481  9.6340e-03  4.2134e-03  2.8993e-03  9.5132e-03  1.3714e-03  1.6055e-03  0:01:54 1938
  2482  9.2818e-03  4.1359e-03  2.8695e-03  9.1645e-03  1.3794e-03  1.5976e-03  0:01:31 1937
  2483  8.9970e-03  4.0781e-03  2.8315e-03  8.8847e-03  1.3875e-03  1.5846e-03  0:01:13 1936
  2484  8.7655e-03  4.0146e-03  2.7848e-03  8.6582e-03  1.3958e-03  1.5746e-03  0:00:58 1935

  iter  continuity  x-velocity  y-velocity      energy           k       omega     time/iter
  2485  8.5849e-03  3.9508e-03  2.7448e-03  8.4811e-03  1.4044e-03  1.5620e-03  0:00:47 1934
  2486  8.4470e-03  3.8843e-03  2.6944e-03  8.3473e-03  1.4137e-03  1.5472e-03  0:07:04 1933
  2487  8.3506e-03  3.8113e-03  2.6323e-03  8.2556e-03  1.4227e-03  1.5372e-03  0:05:39 1932
  2488  8.2924e-03  3.7470e-03  2.5731e-03  8.2026e-03  1.4314e-03  1.5239e-03  0:04:31 1931
  2489  8.2640e-03  3.6892e-03  2.5070e-03  8.1798e-03  1.4395e-03  1.5095e-03  0:03:37 1930
  2490  8.2600e-03  3.6372e-03  2.4410e-03  8.1818e-03  1.4467e-03  1.4953e-03  0:02:53 1929
  2491  8.2657e-03  3.5859e-03  2.3671e-03  8.1929e-03  1.4538e-03  1.4802e-03  0:02:19 1928
  2492  8.2822e-03  3.5390e-03  2.2963e-03  8.2150e-03  1.4612e-03  1.4653e-03  0:01:51 1927
  2493  8.3015e-03  3.4996e-03  2.2259e-03  8.2383e-03  1.4691e-03  1.4511e-03  0:01:29 1926
  2494  8.3281e-03  3.4689e-03  2.1619e-03  8.2681e-03  1.4773e-03  1.4359e-03  0:01:11 1925
  2495  8.3539e-03  3.4357e-03  2.0926e-03  8.2970e-03  1.4850e-03  1.4204e-03  0:00:57 1924

  iter  continuity  x-velocity  y-velocity      energy           k       omega     time/iter
  2496  8.3841e-03  3.3942e-03  2.0205e-03  8.3302e-03  1.4915e-03  1.4059e-03  0:07:10 1923
  2497  8.4219e-03  3.3633e-03  1.9514e-03  8.3714e-03  1.4985e-03  1.3911e-03  0:05:44 1922
  2498  8.4472e-03  3.3382e-03  1.8872e-03  8.3984e-03  1.5064e-03  1.3777e-03  0:04:35 1921
  2499  8.4771e-03  3.3204e-03  1.8377e-03  8.4304e-03  1.5152e-03  1.3628e-03  0:03:40 1920
  2500  8.5029e-03  3.3016e-03  1.7889e-03  8.4581e-03  1.5245e-03  1.3466e-03  0:02:56 1919
  2501  8.5160e-03  3.2793e-03  1.7437e-03  8.4726e-03  1.5341e-03  1.3291e-03  0:02:20 1918
  2502  8.5201e-03  3.2570e-03  1.7077e-03  8.4778e-03  1.5439e-03  1.3104e-03  0:01:52 1917
  2503  8.5236e-03  3.2393e-03  1.6699e-03  8.4821e-03  1.5532e-03  1.2931e-03  0:01:30 1916
  2504  8.5222e-03  3.2265e-03  1.6490e-03  8.4808e-03  1.5628e-03  1.2773e-03  0:01:12 1915
  2505  8.5148e-03  3.2152e-03  1.6345e-03  8.4735e-03  1.5726e-03  1.2621e-03  0:00:57 1914
  2506  8.5004e-03  3.2013e-03  1.6200e-03  8.4588e-03  1.5829e-03  1.2476e-03  0:07:09 1913

  iter  continuity  x-velocity  y-velocity      energy           k       omega     time/iter
  2507  8.4864e-03  3.1848e-03  1.6136e-03  8.4446e-03  1.5935e-03  1.2346e-03  0:05:43 1912
  2508  8.4810e-03  3.1700e-03  1.6105e-03  8.4390e-03  1.6045e-03  1.2231e-03  0:04:34 1911
  2509  8.4639e-03  3.1569e-03  1.6156e-03  8.4210e-03  1.6160e-03  1.2123e-03  0:03:39 1910
  2510  8.4304e-03  3.1418e-03  1.6287e-03  8.3858e-03  1.6273e-03  1.2010e-03  0:02:55 1909
  2511  8.3939e-03  3.1227e-03  1.6273e-03  8.3467e-03  1.6392e-03  1.1906e-03  0:02:20 1908
  2512  8.3649e-03  3.1022e-03  1.6394e-03  8.3151e-03  1.6510e-03  1.1809e-03  0:01:52 1907
  2513  8.3460e-03  3.0820e-03  1.6442e-03  8.2945e-03  1.6621e-03  1.1705e-03  0:07:51 1906
  2514  8.3265e-03  3.0607e-03  1.6537e-03  8.2732e-03  1.6723e-03  1.1597e-03  0:06:16 1905
  2515  8.3100e-03  3.0351e-03  1.6594e-03  8.2545e-03  1.6830e-03  1.1486e-03  0:05:01 1904
  2516  8.2887e-03  3.0069e-03  1.6689e-03  8.2307e-03  1.6939e-03  1.1382e-03  0:04:01 1903
  2517  8.2652e-03  2.9801e-03  1.6866e-03  8.2048e-03  1.7044e-03  1.1275e-03  0:03:12 1902

  iter  continuity  x-velocity  y-velocity      energy           k       omega     time/iter
  2518  8.2360e-03  2.9505e-03  1.6979e-03  8.1730e-03  1.7149e-03  1.1164e-03  0:02:34 1901
  2519  8.2095e-03  2.9190e-03  1.6889e-03  8.1436e-03  1.7255e-03  1.1048e-03  0:02:03 1900
  2520  8.1873e-03  2.8936e-03  1.6909e-03  8.1190e-03  1.7365e-03  1.0934e-03  0:01:38 1899
  2521  8.1563e-03  2.8595e-03  1.6923e-03  8.0855e-03  1.7465e-03  1.0833e-03  0:01:19 1898
  2522  8.1239e-03  2.8229e-03  1.6770e-03  8.0508e-03  1.7558e-03  1.0733e-03  0:01:03 1897
  2523  8.0881e-03  2.7859e-03  1.6647e-03  8.0127e-03  1.7656e-03  1.0627e-03  0:07:09 1896
  2524  8.0427e-03  2.7476e-03  1.6538e-03  7.9648e-03  1.7748e-03  1.0526e-03  0:05:43 1895
  2525  7.9936e-03  2.7095e-03  1.6404e-03  7.9135e-03  1.7832e-03  1.0416e-03  0:04:35 1894
  2526  7.9492e-03  2.6727e-03  1.6242e-03  7.8675e-03  1.7912e-03  1.0307e-03  0:03:40 1893
  2527  7.9009e-03  2.6359e-03  1.5997e-03  7.8178e-03  1.7993e-03  1.0201e-03  0:02:56 1892
  2528  7.8496e-03  2.5997e-03  1.5746e-03  7.7652e-03  1.8072e-03  1.0091e-03  0:02:20 1891

  iter  continuity  x-velocity  y-velocity      energy           k       omega     time/iter
  2529  7.7928e-03  2.5648e-03  1.5461e-03  7.7073e-03  1.8142e-03  9.9927e-04  0:01:52 1890
  2530  7.7287e-03  2.5305e-03  1.5144e-03  7.6424e-03  1.8212e-03  9.8908e-04  0:01:30 1889
  2531  7.6606e-03  2.4949e-03  1.4804e-03  7.5740e-03  1.8274e-03  9.8022e-04  0:01:12 1888
  2532  7.5950e-03  2.4588e-03  1.4479e-03  7.5085e-03  1.8331e-03  9.7135e-04  0:00:57 1887
  2533  7.5285e-03  2.4249e-03  1.4163e-03  7.4422e-03  1.8390e-03  9.6251e-04  0:07:03 1886
  2534  7.4607e-03  2.3918e-03  1.3876e-03  7.3749e-03  1.8448e-03  9.5301e-04  0:05:38 1885
  2535  7.3909e-03  2.3602e-03  1.3590e-03  7.3058e-03  1.8497e-03  9.4402e-04  0:04:30 1884
  2536  7.3172e-03  2.3297e-03  1.3307e-03  7.2330e-03  1.8542e-03  9.3533e-04  0:03:36 1883
  2537  7.2380e-03  2.2963e-03  1.3050e-03  7.1546e-03  1.8591e-03  9.2667e-04  0:02:53 1882
  2538  7.1557e-03  2.2655e-03  1.2844e-03  7.0729e-03  1.8636e-03  9.1769e-04  0:02:18 1881
  2539  7.0694e-03  2.2367e-03  1.2680e-03  6.9871e-03  1.8674e-03  9.1000e-04  0:01:51 1880

  iter  continuity  x-velocity  y-velocity      energy           k       omega     time/iter
  2540  6.9797e-03  2.2091e-03  1.2560e-03  6.8978e-03  1.8707e-03  9.0406e-04  0:01:28 1879
  2541  6.8874e-03  2.1806e-03  1.2474e-03  6.8058e-03  1.8743e-03  8.9704e-04  0:01:11 1878
  2542  6.7920e-03  2.1540e-03  1.2444e-03  6.7102e-03  1.8778e-03  8.9010e-04  0:00:57 1877
  2543  6.6910e-03  2.1284e-03  1.2465e-03  6.6086e-03  1.8814e-03  8.8323e-04  0:07:00 1876
  2544  6.5848e-03  2.1051e-03  1.2531e-03  6.5014e-03  1.8857e-03  8.7764e-04  0:05:36 1875
  2545  6.4755e-03  2.0843e-03  1.2641e-03  6.3907e-03  1.8900e-03  8.7242e-04  0:04:29 1874
  2546  6.3638e-03  2.0586e-03  1.2779e-03  6.2771e-03  1.8941e-03  8.6666e-04  0:03:35 1873
  2547  6.2530e-03  2.0335e-03  1.2939e-03  6.1641e-03  1.8983e-03  8.5965e-04  0:02:52 1872
  2548  6.1462e-03  2.0093e-03  1.3105e-03  6.0548e-03  1.9025e-03  8.5338e-04  0:02:17 1871
  2549  6.0472e-03  1.9867e-03  1.3288e-03  5.9530e-03  1.9067e-03  8.4693e-04  0:01:50 1870
  2550  5.9588e-03  1.9655e-03  1.3481e-03  5.8618e-03  1.9109e-03  8.3984e-04  0:01:28 1869

  iter  continuity  x-velocity  y-velocity      energy           k       omega     time/iter
  2551  5.8847e-03  1.9458e-03  1.3680e-03  5.7845e-03  1.9151e-03  8.3164e-04  0:01:10 1868
  2552  5.8270e-03  1.9270e-03  1.3873e-03  5.7238e-03  1.9188e-03  8.2296e-04  0:00:56 1867
  2553  5.7881e-03  1.9059e-03  1.4052e-03  5.6822e-03  1.9219e-03  8.1468e-04  0:06:58 1866
  2554  5.7728e-03  1.8849e-03  1.4218e-03  5.6646e-03  1.9238e-03  8.0611e-04  0:05:34 1865
  2555  5.7816e-03  1.8640e-03  1.4364e-03  5.6716e-03  1.9249e-03  7.9835e-04  0:04:27 1864
  2556  5.8193e-03  1.8437e-03  1.4491e-03  5.7082e-03  1.9260e-03  7.8998e-04  0:03:34 1863
  2557  5.8863e-03  1.8244e-03  1.4588e-03  5.7749e-03  1.9257e-03  7.8052e-04  0:02:51 1862
  2558  5.9825e-03  1.8047e-03  1.4655e-03  5.8714e-03  1.9240e-03  7.7104e-04  0:02:17 1861
  2559  6.1041e-03  1.7850e-03  1.4687e-03  5.9940e-03  1.9211e-03  7.6092e-04  0:01:49 1860
  2560  6.2511e-03  1.7662e-03  1.4691e-03  6.1428e-03  1.9171e-03  7.5122e-04  0:01:27 1859
  2561  6.4326e-03  1.7478e-03  1.4659e-03  6.3267e-03  1.9120e-03  7.4157e-04  0:01:10 1858

  iter  continuity  x-velocity  y-velocity      energy           k       omega     time/iter
  2562  6.6315e-03  1.7290e-03  1.4591e-03  6.5283e-03  1.9055e-03  7.3185e-04  0:00:56 1857
  2563  6.8334e-03  1.7099e-03  1.4481e-03  6.7332e-03  1.8968e-03  7.2261e-04  0:00:45 1856
  2564  7.0474e-03  1.6906e-03  1.4350e-03  6.9503e-03  1.8867e-03  7.1441e-04  0:06:47 1855
  2565  7.2691e-03  1.6703e-03  1.4194e-03  7.1753e-03  1.8753e-03  7.0578e-04  0:05:25 1854
  2566  7.4932e-03  1.6494e-03  1.4010e-03  7.4027e-03  1.8626e-03  6.9676e-04  0:04:20 1853
  2567  7.7232e-03  1.6292e-03  1.3804e-03  7.6360e-03  1.8486e-03  6.8882e-04  0:03:28 1852
  2568  7.9496e-03  1.6101e-03  1.3573e-03  7.8656e-03  1.8344e-03  6.8099e-04  0:02:46 1851
  2569  8.1672e-03  1.5932e-03  1.3329e-03  8.0863e-03  1.8194e-03  6.7221e-04  0:02:13 1850
  2570  8.3725e-03  1.5756e-03  1.3076e-03  8.2945e-03  1.8037e-03  6.6360e-04  0:01:46 1849
  2571  8.5617e-03  1.5563e-03  1.2820e-03  8.4864e-03  1.7879e-03  6.5511e-04  0:01:25 1848
  2572  8.7341e-03  1.5352e-03  1.2562e-03  8.6613e-03  1.7733e-03  6.4641e-04  0:01:08 1847

  iter  continuity  x-velocity  y-velocity      energy           k       omega     time/iter
  2573  8.8847e-03  1.5118e-03  1.2305e-03  8.8142e-03  1.7598e-03  6.3856e-04  0:00:54 1846
  2574  9.0112e-03  1.4890e-03  1.2047e-03  8.9428e-03  1.7478e-03  6.3106e-04  0:06:52 1845
  2575  9.1110e-03  1.4669e-03  1.1808e-03  9.0446e-03  1.7372e-03  6.2433e-04  0:05:30 1844
  2576  9.1861e-03  1.4445e-03  1.1589e-03  9.1214e-03  1.7273e-03  6.1816e-04  0:04:24 1843
  2577  9.2336e-03  1.4219e-03  1.1393e-03  9.1706e-03  1.7179e-03  6.1188e-04  0:03:31 1842
  2578  9.2465e-03  1.3998e-03  1.1216e-03  9.1849e-03  1.7096e-03  6.0565e-04  0:02:49 1841
  2579  9.2247e-03  1.3772e-03  1.1052e-03  9.1646e-03  1.7020e-03  5.9963e-04  0:02:15 1840
  2580  9.1687e-03  1.3561e-03  1.0923e-03  9.1098e-03  1.6945e-03  5.9413e-04  0:01:48 1839
  2581  9.0808e-03  1.3371e-03  1.0822e-03  9.0232e-03  1.6876e-03  5.8791e-04  0:01:26 1838
  2582  8.9604e-03  1.3197e-03  1.0744e-03  8.9041e-03  1.6817e-03  5.8274e-04  0:01:09 1837
  2583  8.8071e-03  1.3039e-03  1.0687e-03  8.7521e-03  1.6763e-03  5.7749e-04  0:00:55 1836

  iter  continuity  x-velocity  y-velocity      energy           k       omega     time/iter
  2584  8.6233e-03  1.2895e-03  1.0648e-03  8.5696e-03  1.6714e-03  5.7294e-04  0:00:44 1835
  2585  8.4102e-03  1.2757e-03  1.0624e-03  8.3579e-03  1.6669e-03  5.6784e-04  0:06:42 1834
  2586  8.1706e-03  1.2612e-03  1.0623e-03  8.1197e-03  1.6625e-03  5.6275e-04  0:05:21 1833
  2587  7.9044e-03  1.2473e-03  1.0630e-03  7.8549e-03  1.6590e-03  5.5675e-04  0:04:17 1832
  2588  7.6137e-03  1.2354e-03  1.0650e-03  7.5657e-03  1.6565e-03  5.5215e-04  0:03:25 1831
  2589  7.3002e-03  1.2232e-03  1.0676e-03  7.2537e-03  1.6542e-03  5.4748e-04  0:02:44 1830
  2590  6.9667e-03  1.2110e-03  1.0701e-03  6.9218e-03  1.6522e-03  5.4273e-04  0:02:11 1829
  2591  6.6157e-03  1.2006e-03  1.0727e-03  6.5723e-03  1.6506e-03  5.3827e-04  0:01:45 1828
  2592  6.2500e-03  1.1924e-03  1.0750e-03  6.2082e-03  1.6494e-03  5.3384e-04  0:01:24 1827
  2593  5.8738e-03  1.1855e-03  1.0768e-03  5.8334e-03  1.6491e-03  5.2962e-04  0:01:07 1826
  2594  5.4916e-03  1.1796e-03  1.0781e-03  5.4526e-03  1.6498e-03  5.2592e-04  0:00:54 1825

  iter  continuity  x-velocity  y-velocity      energy           k       omega     time/iter
  2595  5.1112e-03  1.1750e-03  1.0786e-03  5.0735e-03  1.6509e-03  5.2209e-04  0:06:48 1824
  2596  4.7378e-03  1.1710e-03  1.0781e-03  4.7011e-03  1.6517e-03  5.1862e-04  0:05:26 1823
  2597  4.3771e-03  1.1664e-03  1.0764e-03  4.3412e-03  1.6528e-03  5.1504e-04  0:04:21 1822
  2598  4.0369e-03  1.1623e-03  1.0734e-03  4.0015e-03  1.6541e-03  5.1157e-04  0:03:28 1821
  2599  3.7270e-03  1.1583e-03  1.0690e-03  3.6917e-03  1.6555e-03  5.0824e-04  0:02:47 1820
  2600  3.4606e-03  1.1548e-03  1.0628e-03  3.4249e-03  1.6561e-03  5.0427e-04  0:02:13 1819
  2601  3.2494e-03  1.1512e-03  1.0552e-03  3.2130e-03  1.6567e-03  5.0079e-04  0:01:47 1818
  2602  3.1041e-03  1.1470e-03  1.0458e-03  3.0667e-03  1.6573e-03  4.9748e-04  0:01:25 1817
  2603  3.0319e-03  1.1426e-03  1.0348e-03  2.9933e-03  1.6575e-03  4.9341e-04  0:01:08 1816
  2604  3.0335e-03  1.1365e-03  1.0223e-03  2.9940e-03  1.6576e-03  4.9022e-04  0:00:54 1815
  2605  3.1029e-03  1.1299e-03  1.0083e-03  3.0624e-03  1.6578e-03  4.8666e-04  0:06:46 1814

  iter  continuity  x-velocity  y-velocity      energy           k       omega     time/iter
  2606  3.2293e-03  1.1237e-03  9.9284e-04  3.1881e-03  1.6577e-03  4.8339e-04  0:05:25 1813
  2607  3.3991e-03  1.1184e-03  9.7575e-04  3.3573e-03  1.6580e-03  4.8030e-04  0:04:20 1812
  2608  3.5947e-03  1.1125e-03  9.5737e-04  3.5524e-03  1.6575e-03  4.7710e-04  0:03:28 1811
  2609  3.8034e-03  1.1061e-03  9.3797e-04  3.7607e-03  1.6567e-03  4.7376e-04  0:02:46 1810
  2610  4.0171e-03  1.1010e-03  9.1926e-04  3.9741e-03  1.6555e-03  4.7043e-04  0:02:13 1809
  2611  4.2263e-03  1.0968e-03  9.0034e-04  4.1830e-03  1.6540e-03  4.6738e-04  0:01:46 1808
  2612  4.4220e-03  1.0934e-03  8.7937e-04  4.3785e-03  1.6519e-03  4.6447e-04  0:01:25 1807
  2613  4.5979e-03  1.0910e-03  8.5729e-04  4.5543e-03  1.6488e-03  4.6179e-04  0:01:08 1806
  2614  4.7506e-03  1.0861e-03  8.3470e-04  4.7069e-03  1.6453e-03  4.5873e-04  0:00:54 1805
  2615  4.8767e-03  1.0799e-03  8.1273e-04  4.8331e-03  1.6409e-03  4.5587e-04  0:06:44 1804
  2616  4.9746e-03  1.0752e-03  7.9164e-04  4.9311e-03  1.6359e-03  4.5308e-04  0:05:23 1803

  iter  continuity  x-velocity  y-velocity      energy           k       omega     time/iter
  2617  5.0403e-03  1.0701e-03  7.7122e-04  4.9970e-03  1.6294e-03  4.5020e-04  0:04:18 1802
  2618  5.0804e-03  1.0645e-03  7.5217e-04  5.0374e-03  1.6219e-03  4.4704e-04  0:03:27 1801
  2619  5.0940e-03  1.0591e-03  7.3506e-04  5.0512e-03  1.6134e-03  4.4428e-04  0:02:45 1800
  2620  5.0805e-03  1.0556e-03  7.1967e-04  5.0379e-03  1.6042e-03  4.4208e-04  0:02:12 1799
  2621  5.0386e-03  1.0510e-03  7.0587e-04  4.9964e-03  1.5936e-03  4.3934e-04  0:01:46 1798
  2622  4.9588e-03  1.0508e-03  6.9385e-04  4.9169e-03  1.5824e-03  4.3620e-04  0:01:24 1797
  2623  4.8500e-03  1.0498e-03  6.8363e-04  4.8085e-03  1.5708e-03  4.3346e-04  0:01:08 1796
  2624  4.7282e-03  1.0472e-03  6.7479e-04  4.6871e-03  1.5592e-03  4.3094e-04  0:00:54 1795
  2625  4.5963e-03  1.0428e-03  6.6767e-04  4.5555e-03  1.5475e-03  4.2817e-04  0:00:43 1794
  2626  4.4579e-03  1.0402e-03  6.6247e-04  4.4174e-03  1.5357e-03  4.2537e-04  0:06:33 1793
  2627  4.3174e-03  1.0375e-03  6.5688e-04  4.2771e-03  1.5239e-03  4.2227e-04  0:05:14 1792

  iter  continuity  x-velocity  y-velocity      energy           k       omega     time/iter
  2628  4.1808e-03  1.0282e-03  6.5100e-04  4.1407e-03  1.5125e-03  4.2013e-04  0:04:11 1791
  2629  4.0536e-03  1.0192e-03  6.4465e-04  4.0137e-03  1.5005e-03  4.1741e-04  0:03:21 1790
  2630  3.9404e-03  1.0111e-03  6.3921e-04  3.9007e-03  1.4884e-03  4.1478e-04  0:02:41 1789
  2631  3.8413e-03  1.0046e-03  6.3324e-04  3.8020e-03  1.4758e-03  4.1195e-04  0:02:08 1788
  2632  3.7608e-03  9.9919e-04  6.2657e-04  3.7219e-03  1.4628e-03  4.0835e-04  0:01:43 1787
  2633  3.7071e-03  9.9559e-04  6.1969e-04  3.6687e-03  1.4498e-03  4.0584e-04  0:01:22 1786
  2634  3.6814e-03  9.9156e-04  6.1260e-04  3.6437e-03  1.4367e-03  4.0311e-04  0:01:06 1785
  2635  3.6787e-03  9.8395e-04  6.0537e-04  3.6416e-03  1.4236e-03  3.9985e-04  0:00:52 1784
  2636  3.6950e-03  9.7247e-04  5.9749e-04  3.6587e-03  1.4104e-03  3.9643e-04  0:06:39 1783
  2637  3.7204e-03  9.6328e-04  5.8868e-04  3.6847e-03  1.3975e-03  3.9381e-04  0:05:19 1782
  2638  3.7594e-03  9.5661e-04  5.7995e-04  3.7243e-03  1.3846e-03  3.9112e-04  0:04:15 1781

  iter  continuity  x-velocity  y-velocity      energy           k       omega     time/iter
  2639  3.8101e-03  9.5124e-04  5.7156e-04  3.7755e-03  1.3716e-03  3.8837e-04  0:03:24 1780
  2640  3.8640e-03  9.4552e-04  5.6321e-04  3.8298e-03  1.3592e-03  3.8502e-04  0:02:43 1779
  2641  3.9147e-03  9.3846e-04  5.5518e-04  3.8809e-03  1.3472e-03  3.8220e-04  0:02:10 1778
  2642  3.9580e-03  9.2908e-04  5.4704e-04  3.9245e-03  1.3356e-03  3.7959e-04  0:01:44 1777
  2643  3.9908e-03  9.1883e-04  5.3880e-04  3.9575e-03  1.3242e-03  3.7711e-04  0:01:23 1776
  2644  4.0102e-03  9.0864e-04  5.3050e-04  3.9771e-03  1.3129e-03  3.7480e-04  0:01:07 1775
  2645  4.0141e-03  9.0013e-04  5.2241e-04  3.9811e-03  1.3020e-03  3.7252e-04  0:06:48 1774
  2646  4.0013e-03  8.9613e-04  5.1476e-04  3.9682e-03  1.2919e-03  3.7049e-04  0:05:26 1773
  2647  3.9702e-03  8.9210e-04  5.0743e-04  3.9373e-03  1.2822e-03  3.6884e-04  0:04:21 1772
  2648  3.9210e-03  8.8158e-04  5.0050e-04  3.8880e-03  1.2731e-03  3.6753e-04  0:03:29 1771
  2649  3.8527e-03  8.7322e-04  4.9392e-04  3.8198e-03  1.2644e-03  3.6637e-04  0:02:47 1770

  iter  continuity  x-velocity  y-velocity      energy           k       omega     time/iter
  2650  3.7658e-03  8.6565e-04  4.8783e-04  3.7329e-03  1.2559e-03  3.6551e-04  0:02:13 1769
  2651  3.6607e-03  8.5634e-04  4.8217e-04  3.6280e-03  1.2476e-03  3.6468e-04  0:01:47 1768
  2652  3.5393e-03  8.4693e-04  4.7653e-04  3.5067e-03  1.2390e-03  3.6392e-04  0:01:25 1767
  2653  3.4043e-03  8.3801e-04  4.7143e-04  3.3718e-03  1.2306e-03  3.6336e-04  0:01:08 1766
  2654  3.2579e-03  8.2769e-04  4.6663e-04  3.2255e-03  1.2220e-03  3.6296e-04  0:06:47 1765
  2655  3.1033e-03  8.1712e-04  4.6167e-04  3.0711e-03  1.2134e-03  3.6261e-04  0:05:26 1764
  2656  2.9444e-03  8.0848e-04  4.5672e-04  2.9122e-03  1.2050e-03  3.6231e-04  0:04:20 1763
  2657  2.7852e-03  8.0179e-04  4.5161e-04  2.7530e-03  1.1963e-03  3.6181e-04  0:03:28 1762
  2658  2.6294e-03  7.9540e-04  4.4668e-04  2.5973e-03  1.1873e-03  3.6122e-04  0:02:47 1761
  2659  2.4828e-03  7.9266e-04  4.4143e-04  2.4505e-03  1.1783e-03  3.6015e-04  0:02:13 1760
  2660  2.3512e-03  7.9268e-04  4.3604e-04  2.3188e-03  1.1687e-03  3.5879e-04  0:01:46 1759

  iter  continuity  x-velocity  y-velocity      energy           k       omega     time/iter
  2661  2.2394e-03  7.9464e-04  4.3082e-04  2.2068e-03  1.1590e-03  3.5793e-04  0:01:25 1758
  2662  2.1526e-03  7.9110e-04  4.2587e-04  2.1198e-03  1.1492e-03  3.5671e-04  0:01:08 1757
  2663  2.0950e-03  7.8553e-04  4.2093e-04  2.0621e-03  1.1399e-03  3.5503e-04  0:00:54 1756
  2664  2.0680e-03  7.8227e-04  4.1588e-04  2.0350e-03  1.1309e-03  3.5364e-04  0:06:35 1755
  2665  2.0720e-03  7.7582e-04  4.1107e-04  2.0391e-03  1.1226e-03  3.5262e-04  0:05:15 1754
  2666  2.1041e-03  7.6525e-04  4.0656e-04  2.0713e-03  1.1152e-03  3.5045e-04  0:04:12 1753
  2667  2.1597e-03  7.5324e-04  4.0222e-04  2.1271e-03  1.1088e-03  3.4862e-04  0:03:22 1752
  2668  2.2339e-03  7.4126e-04  3.9784e-04  2.2015e-03  1.1032e-03  3.4728e-04  0:02:41 1751
  2669  2.3214e-03  7.3458e-04  3.9351e-04  2.2891e-03  1.0976e-03  3.4546e-04  0:02:09 1750
  2670  2.4176e-03  7.2811e-04  3.8868e-04  2.3854e-03  1.0920e-03  3.4374e-04  0:01:43 1749
  2671  2.5171e-03  7.2014e-04  3.8430e-04  2.4851e-03  1.0867e-03  3.4192e-04  0:01:22 1748

  iter  continuity  x-velocity  y-velocity      energy           k       omega     time/iter
  2672  2.6151e-03  7.1416e-04  3.8008e-04  2.5830e-03  1.0812e-03  3.3992e-04  0:01:06 1747
  2673  2.7093e-03  7.0919e-04  3.7593e-04  2.6771e-03  1.0762e-03  3.3805e-04  0:00:53 1746
  2674  2.7972e-03  7.0483e-04  3.7222e-04  2.7649e-03  1.0711e-03  3.3619e-04  0:06:31 1745
  2675  2.8770e-03  7.0078e-04  3.6901e-04  2.8446e-03  1.0663e-03  3.3429e-04  0:05:13 1744
  2676  2.9477e-03  6.9273e-04  3.6622e-04  2.9152e-03  1.0618e-03  3.3239e-04  0:04:10 1743
  2677  3.0087e-03  6.8426e-04  3.6403e-04  2.9760e-03  1.0578e-03  3.3063e-04  0:03:20 1742
  2678  3.0587e-03  6.7930e-04  3.6189e-04  3.0259e-03  1.0548e-03  3.2896e-04  0:02:40 1741
  2679  3.0992e-03  6.7571e-04  3.5939e-04  3.0662e-03  1.0522e-03  3.2730e-04  0:02:08 1740
  2680  3.1299e-03  6.7147e-04  3.5686e-04  3.0968e-03  1.0505e-03  3.2552e-04  0:01:42 1739
  2681  3.1509e-03  6.6348e-04  3.5441e-04  3.1176e-03  1.0489e-03  3.2366e-04  0:01:22 1738
  2682  3.1630e-03  6.5754e-04  3.5181e-04  3.1296e-03  1.0481e-03  3.2160e-04  0:01:05 1737

  iter  continuity  x-velocity  y-velocity      energy           k       omega     time/iter
  2683  3.1672e-03  6.5341e-04  3.4939e-04  3.1337e-03  1.0474e-03  3.1950e-04  0:06:39 1736
  2684  3.1644e-03  6.5133e-04  3.4705e-04  3.1307e-03  1.0470e-03  3.1765e-04  0:05:19 1735
  2685  3.1558e-03  6.5070e-04  3.4461e-04  3.1219e-03  1.0468e-03  3.1557e-04  0:04:15 1734
  2686  3.1421e-03  6.5041e-04  3.4201e-04  3.1080e-03  1.0466e-03  3.1314e-04  0:03:24 1733
  2687  3.1240e-03  6.4986e-04  3.3929e-04  3.0897e-03  1.0461e-03  3.1077e-04  0:02:43 1732
  2688  3.1025e-03  6.4777e-04  3.3655e-04  3.0681e-03  1.0458e-03  3.0846e-04  0:02:11 1731
  2689  3.0791e-03  6.4559e-04  3.3380e-04  3.0445e-03  1.0456e-03  3.0628e-04  0:01:44 1730
  2690  3.0540e-03  6.4297e-04  3.3112e-04  3.0192e-03  1.0451e-03  3.0402e-04  0:01:23 1729
  2691  3.0279e-03  6.4061e-04  3.2861e-04  2.9929e-03  1.0445e-03  3.0172e-04  0:01:07 1728
  2692  3.0014e-03  6.3930e-04  3.2644e-04  2.9662e-03  1.0435e-03  2.9903e-04  0:00:53 1727
  2693  2.9753e-03  6.3781e-04  3.2464e-04  2.9399e-03  1.0423e-03  2.9657e-04  0:06:28 1726

  iter  continuity  x-velocity  y-velocity      energy           k       omega     time/iter
  2694  2.9503e-03  6.3794e-04  3.2323e-04  2.9147e-03  1.0408e-03  2.9443e-04  0:05:10 1725
  2695  2.9268e-03  6.3780e-04  3.2222e-04  2.8910e-03  1.0387e-03  2.9204e-04  0:04:08 1724
  2696  2.9051e-03  6.3736e-04  3.2167e-04  2.8692e-03  1.0363e-03  2.8957e-04  0:03:18 1723
  2697  2.8857e-03  6.3667e-04  3.2166e-04  2.8496e-03  1.0342e-03  2.8705e-04  0:02:38 1722
  2698  2.8693e-03  6.3617e-04  3.2215e-04  2.8331e-03  1.0320e-03  2.8497e-04  0:02:07 1721
  2699  2.8566e-03  6.3401e-04  3.2322e-04  2.8202e-03  1.0296e-03  2.8292e-04  0:01:41 1720
  2700  2.8480e-03  6.3052e-04  3.2468e-04  2.8115e-03  1.0273e-03  2.8101e-04  0:01:21 1719
  2701  2.8444e-03  6.2794e-04  3.2654e-04  2.8078e-03  1.0249e-03  2.7886e-04  0:01:05 1718
  2702  2.8463e-03  6.2617e-04  3.2873e-04  2.8096e-03  1.0227e-03  2.7679e-04  0:00:52 1717
  2703  2.8541e-03  6.2448e-04  3.3123e-04  2.8174e-03  1.0203e-03  2.7539e-04  0:06:25 1716
  2704  2.8683e-03  6.2352e-04  3.3404e-04  2.8316e-03  1.0179e-03  2.7397e-04  0:05:08 1715

  iter  continuity  x-velocity  y-velocity      energy           k       omega     time/iter
  2705  2.8893e-03  6.2333e-04  3.3707e-04  2.8525e-03  1.0157e-03  2.7255e-04  0:04:06 1714
  2706  2.9169e-03  6.2419e-04  3.4030e-04  2.8802e-03  1.0136e-03  2.7126e-04  0:03:17 1713
  2707  2.9511e-03  6.2661e-04  3.4358e-04  2.9143e-03  1.0116e-03  2.7000e-04  0:02:37 1712
  2708  2.9914e-03  6.3061e-04  3.4686e-04  2.9546e-03  1.0098e-03  2.6892e-04  0:02:06 1711
  2709  3.0372e-03  6.3876e-04  3.4981e-04  3.0003e-03  1.0079e-03  2.6794e-04  0:01:40 1710
  2710  3.0878e-03  6.5226e-04  3.5265e-04  3.0508e-03  1.0060e-03  2.6693e-04  0:01:20 1709
  2711  3.1411e-03  6.5573e-04  3.5473e-04  3.1041e-03  1.0043e-03  2.6588e-04  0:01:04 1708
  2712  3.1962e-03  6.5861e-04  3.5666e-04  3.1593e-03  1.0027e-03  2.6465e-04  0:00:51 1707
  2713  3.2523e-03  6.6256e-04  3.5825e-04  3.2155e-03  1.0014e-03  2.6341e-04  0:06:22 1706
  2714  3.3078e-03  6.6674e-04  3.5954e-04  3.2710e-03  1.0004e-03  2.6239e-04  0:05:06 1705
  2715  3.3610e-03  6.6785e-04  3.6067e-04  3.3243e-03  9.9943e-04  2.6143e-04  0:04:04 1704

  iter  continuity  x-velocity  y-velocity      energy           k       omega     time/iter
  2716  3.4111e-03  6.6832e-04  3.6166e-04  3.3744e-03  9.9848e-04  2.6051e-04  0:03:15 1703
  2717  3.4567e-03  6.6923e-04  3.6214e-04  3.4202e-03  9.9792e-04  2.5964e-04  0:02:36 1702
  2718  3.4969e-03  6.6945e-04  3.6234e-04  3.4603e-03  9.9748e-04  2.5864e-04  0:02:05 1701
  2719  3.5303e-03  6.7042e-04  3.6233e-04  3.4938e-03  9.9711e-04  2.5756e-04  0:01:40 1700
  2720  3.5567e-03  6.7545e-04  3.6205e-04  3.5202e-03  9.9659e-04  2.5649e-04  0:01:20 1699
  2721  3.5753e-03  6.8122e-04  3.6178e-04  3.5388e-03  9.9600e-04  2.5592e-04  0:01:04 1698
  2722  3.5853e-03  6.8968e-04  3.6159e-04  3.5487e-03  9.9539e-04  2.5512e-04  0:00:51 1697
  2723  3.5867e-03  6.9817e-04  3.6152e-04  3.5501e-03  9.9450e-04  2.5451e-04  0:00:41 1696
  2724  3.5797e-03  7.0874e-04  3.6139e-04  3.5431e-03  9.9355e-04  2.5400e-04  0:06:12 1695
  2725  3.5648e-03  7.1798e-04  3.6111e-04  3.5280e-03  9.9236e-04  2.5351e-04  0:04:57 1694
  2726  3.5421e-03  7.2659e-04  3.6073e-04  3.5052e-03  9.9099e-04  2.5316e-04  0:03:58 1693

  iter  continuity  x-velocity  y-velocity      energy           k       omega     time/iter
  2727  3.5121e-03  7.3610e-04  3.6007e-04  3.4749e-03  9.8943e-04  2.5282e-04  0:03:10 1692
  2728  3.4752e-03  7.4612e-04  3.5919e-04  3.4378e-03  9.8785e-04  2.5256e-04  0:02:32 1691
  2729  3.4325e-03  7.5819e-04  3.5845e-04  3.3948e-03  9.8598e-04  2.5230e-04  0:02:01 1690
  2730  3.3848e-03  7.7250e-04  3.5797e-04  3.3467e-03  9.8384e-04  2.5206e-04  0:01:37 1689
  2731  3.3329e-03  7.8715e-04  3.5736e-04  3.2943e-03  9.8142e-04  2.5209e-04  0:01:18 1688
  2732  3.2772e-03  7.9644e-04  3.5646e-04  3.2381e-03  9.7860e-04  2.5248e-04  0:01:02 1687
  2733  3.2192e-03  8.0283e-04  3.5549e-04  3.1796e-03  9.7544e-04  2.5320e-04  0:00:50 1686
  2734  3.1604e-03  8.1048e-04  3.5510e-04  3.1201e-03  9.7185e-04  2.5402e-04  0:06:17 1685
  2735  3.1013e-03  8.1662e-04  3.5396e-04  3.0604e-03  9.6777e-04  2.5516e-04  0:05:01 1684
  2736  3.0431e-03  8.2702e-04  3.5289e-04  3.0015e-03  9.6330e-04  2.5617e-04  0:04:01 1683
  2737  2.9864e-03  8.3646e-04  3.5215e-04  2.9440e-03  9.5828e-04  2.5711e-04  0:03:13 1682

  iter  continuity  x-velocity  y-velocity      energy           k       omega     time/iter
  2738  2.9320e-03  8.4732e-04  3.5114e-04  2.8887e-03  9.5262e-04  2.5834e-04  0:02:34 1681
  2739  2.8804e-03  8.5987e-04  3.5041e-04  2.8363e-03  9.4631e-04  2.6015e-04  0:02:03 1680
  2740  2.8318e-03  8.7090e-04  3.4897e-04  2.7870e-03  9.3931e-04  2.6199e-04  0:01:38 1679
  2741  2.7872e-03  8.8434e-04  3.4745e-04  2.7416e-03  9.3183e-04  2.6416e-04  0:01:19 1678
  2742  2.7471e-03  9.0115e-04  3.4676e-04  2.7006e-03  9.2371e-04  2.6640e-04  0:01:03 1677
  2743  2.7118e-03  9.2561e-04  3.4707e-04  2.6645e-03  9.1516e-04  2.6876e-04  0:00:50 1676
  2744  2.6815e-03  9.4547e-04  3.4738e-04  2.6332e-03  9.0620e-04  2.7112e-04  0:06:15 1675
  2745  2.6549e-03  9.6261e-04  3.4655e-04  2.6056e-03  8.9672e-04  2.7342e-04  0:05:00 1674
  2746  2.6299e-03  9.6350e-04  3.4510e-04  2.5795e-03  8.8690e-04  2.7589e-04  0:04:00 1673
  2747  2.6083e-03  9.6072e-04  3.4449e-04  2.5568e-03  8.7667e-04  2.7850e-04  0:03:12 1672
  2748  2.5925e-03  9.8170e-04  3.4428e-04  2.5398e-03  8.6614e-04  2.8123e-04  0:02:33 1671

  iter  continuity  x-velocity  y-velocity      energy           k       omega     time/iter
  2749  2.5783e-03  9.8826e-04  3.4307e-04  2.5245e-03  8.5519e-04  2.8413e-04  0:02:03 1670
  2750  2.5617e-03  9.6160e-04  3.4231e-04  2.5071e-03  8.4394e-04  2.8640e-04  0:01:38 1669
  2751  2.5480e-03  9.2970e-04  3.4028e-04  2.4928e-03  8.3241e-04  2.8905e-04  0:01:18 1668
  2752  2.5381e-03  9.2161e-04  3.3928e-04  2.4822e-03  8.2073e-04  2.9176e-04  0:01:03 1667
  2753  2.5308e-03  9.1637e-04  3.3943e-04  2.4741e-03  8.0884e-04  2.9425e-04  0:06:23 1666
  2754  2.5267e-03  9.1827e-04  3.4024e-04  2.4690e-03  7.9679e-04  2.9649e-04  0:05:06 1665
  2755  2.5246e-03  9.2284e-04  3.4142e-04  2.4659e-03  7.8470e-04  2.9888e-04  0:04:05 1664
  2756  2.5243e-03  9.3064e-04  3.4239e-04  2.4644e-03  7.7268e-04  3.0101e-04  0:03:16 1663
  2757  2.5244e-03  9.2391e-04  3.4236e-04  2.4634e-03  7.6145e-04  3.0353e-04  0:02:37 1662
  2758  2.5272e-03  9.2531e-04  3.4239e-04  2.4648e-03  7.5084e-04  3.0573e-04  0:02:05 1661
  2759  2.5323e-03  9.2963e-04  3.4225e-04  2.4685e-03  7.4043e-04  3.0775e-04  0:01:40 1660

  iter  continuity  x-velocity  y-velocity      energy           k       omega     time/iter
  2760  2.5397e-03  9.3438e-04  3.4257e-04  2.4745e-03  7.3014e-04  3.0996e-04  0:01:20 1659
  2761  2.5497e-03  9.4053e-04  3.4376e-04  2.4830e-03  7.1999e-04  3.1194e-04  0:01:04 1658
  2762  2.5628e-03  9.5422e-04  3.4480e-04  2.4946e-03  7.1010e-04  3.1380e-04  0:00:51 1657
  2763  2.5773e-03  9.6149e-04  3.4578e-04  2.5077e-03  7.0041e-04  3.1539e-04  0:06:12 1656
  2764  2.5935e-03  9.6125e-04  3.4695e-04  2.5227e-03  6.9101e-04  3.1687e-04  0:04:58 1655
  2765  2.6127e-03  9.6659e-04  3.4904e-04  2.5406e-03  6.8192e-04  3.1834e-04  0:03:58 1654
  2766  2.6342e-03  9.7139e-04  3.5085e-04  2.5607e-03  6.7337e-04  3.1960e-04  0:03:10 1653
  2767  2.6576e-03  9.7404e-04  3.5160e-04  2.5827e-03  6.6569e-04  3.2063e-04  0:02:32 1652
  2768  2.6828e-03  9.7732e-04  3.5233e-04  2.6065e-03  6.5908e-04  3.2145e-04  0:02:02 1651
  2769  2.7112e-03  9.9429e-04  3.5317e-04  2.6337e-03  6.5362e-04  3.2188e-04  0:01:37 1650
  2770  2.7384e-03  9.9742e-04  3.5282e-04  2.6599e-03  6.4900e-04  3.2244e-04  0:01:18 1649

  iter  continuity  x-velocity  y-velocity      energy           k       omega     time/iter
  2771  2.7684e-03  9.9870e-04  3.5252e-04  2.6888e-03  6.4508e-04  3.2276e-04  0:01:02 1648
  2772  2.8003e-03  1.0027e-03  3.5380e-04  2.7195e-03  6.4181e-04  3.2281e-04  0:06:19 1647
  2773  2.8326e-03  1.0078e-03  3.5318e-04  2.7508e-03  6.3916e-04  3.2306e-04  0:05:03 1646
  2774  2.8676e-03  1.0297e-03  3.5399e-04  2.7846e-03  6.3703e-04  3.2308e-04  0:04:02 1645
  2775  2.9005e-03  1.0406e-03  3.5526e-04  2.8163e-03  6.3529e-04  3.2276e-04  0:03:14 1644
  2776  2.9336e-03  1.0396e-03  3.5471e-04  2.8484e-03  6.3401e-04  3.2218e-04  0:02:35 1643
  2777  2.9707e-03  1.0683e-03  3.5559e-04  2.8841e-03  6.3320e-04  3.2140e-04  0:02:04 1642
  2778  3.0044e-03  1.0723e-03  3.5605e-04  2.9164e-03  6.3272e-04  3.2045e-04  0:01:39 1641
  2779  3.0389e-03  1.0865e-03  3.5468e-04  2.9490e-03  6.3251e-04  3.1960e-04  0:01:19 1640
  2780  3.0700e-03  1.0937e-03  3.5486e-04  2.9790e-03  6.3250e-04  3.1874e-04  0:06:31 1639
  2781  3.0911e-03  1.0204e-03  3.5138e-04  2.9997e-03  6.3264e-04  3.1771e-04  0:05:13 1638

  iter  continuity  x-velocity  y-velocity      energy           k       omega     time/iter
  2782  3.1170e-03  9.9291e-04  3.4813e-04  3.0254e-03  6.3300e-04  3.1646e-04  0:04:10 1637
  2783  3.1430e-03  9.7508e-04  3.4680e-04  3.0508e-03  6.3343e-04  3.1512e-04  0:03:20 1636
  2784  3.1690e-03  9.6510e-04  3.4428e-04  3.0759e-03  6.3398e-04  3.1356e-04  0:02:40 1635
  2785  3.1951e-03  9.6334e-04  3.4320e-04  3.1010e-03  6.3465e-04  3.1191e-04  0:02:08 1634
  2786  3.2209e-03  9.6553e-04  3.4183e-04  3.1256e-03  6.3538e-04  3.1042e-04  0:01:42 1633
  2787  3.2461e-03  9.7081e-04  3.4155e-04  3.1497e-03  6.3625e-04  3.0882e-04  0:01:22 1632
  2788  3.2706e-03  9.7469e-04  3.4339e-04  3.1730e-03  6.3728e-04  3.0702e-04  0:01:05 1631
  2789  3.2921e-03  9.6922e-04  3.4540e-04  3.1940e-03  6.3848e-04  3.0546e-04  0:06:18 1630
  2790  3.3140e-03  9.6897e-04  3.4649e-04  3.2152e-03  6.3983e-04  3.0396e-04  0:05:02 1629
  2791  3.3361e-03  9.7215e-04  3.4607e-04  3.2366e-03  6.4126e-04  3.0228e-04  0:04:02 1628
  2792  3.3581e-03  9.8020e-04  3.4482e-04  3.2579e-03  6.4289e-04  3.0049e-04  0:03:13 1627

  iter  continuity  x-velocity  y-velocity      energy           k       omega     time/iter
  2793  3.3802e-03  9.8932e-04  3.4691e-04  3.2793e-03  6.4483e-04  2.9867e-04  0:02:35 1626
  2794  3.3993e-03  9.8636e-04  3.4793e-04  3.2983e-03  6.4674e-04  2.9685e-04  0:02:04 1625
  2795  3.4180e-03  9.7740e-04  3.4872e-04  3.3167e-03  6.4875e-04  2.9486e-04  0:01:39 1624
  2796  3.4359e-03  9.7381e-04  3.4870e-04  3.3345e-03  6.5068e-04  2.9286e-04  0:01:19 1623
  2797  3.4535e-03  9.6825e-04  3.4946e-04  3.3520e-03  6.5248e-04  2.9083e-04  0:01:03 1622
  2798  3.4705e-03  9.7226e-04  3.4988e-04  3.3691e-03  6.5443e-04  2.8882e-04  0:00:50 1621
  2799  3.4862e-03  9.6382e-04  3.5132e-04  3.3850e-03  6.5643e-04  2.8692e-04  0:06:04 1620
  2800  3.5020e-03  9.5464e-04  3.5343e-04  3.4010e-03  6.5841e-04  2.8505e-04  0:04:51 1619
  2801  3.5189e-03  9.6910e-04  3.5571e-04  3.4180e-03  6.6028e-04  2.8319e-04  0:03:53 1618
  2802  3.5348e-03  9.9105e-04  3.5727e-04  3.4340e-03  6.6211e-04  2.8138e-04  0:03:06 1617
  2803  3.5490e-03  9.7370e-04  3.5878e-04  3.4483e-03  6.6397e-04  2.7971e-04  0:02:29 1616

  iter  continuity  x-velocity  y-velocity      energy           k       omega     time/iter
  2804  3.5661e-03  1.0077e-03  3.6381e-04  3.4655e-03  6.6583e-04  2.7808e-04  0:01:59 1615
  2805  3.5800e-03  1.0106e-03  3.6527e-04  3.4789e-03  6.6755e-04  2.7643e-04  0:01:35 1614
  2806  3.5935e-03  1.0344e-03  3.6874e-04  3.4925e-03  6.6905e-04  2.7468e-04  0:01:16 1613
  2807  3.5974e-03  9.7592e-04  3.6871e-04  3.4974e-03  6.7025e-04  2.7293e-04  0:01:01 1612
  2808  3.6023e-03  9.3594e-04  3.6572e-04  3.5034e-03  6.7114e-04  2.7127e-04  0:06:11 1611
  2809  3.6086e-03  9.1743e-04  3.6601e-04  3.5106e-03  6.7169e-04  2.6969e-04  0:04:56 1610
  2810  3.6149e-03  9.1962e-04  3.6792e-04  3.5174e-03  6.7185e-04  2.6808e-04  0:03:57 1609
  2811  3.6189e-03  9.1570e-04  3.6652e-04  3.5216e-03  6.7174e-04  2.6643e-04  0:03:10 1608
  2812  3.6224e-03  9.2240e-04  3.6706e-04  3.5255e-03  6.7131e-04  2.6460e-04  0:02:32 1607
  2813  3.6229e-03  9.2134e-04  3.6744e-04  3.5263e-03  6.7053e-04  2.6270e-04  0:02:01 1606
  2814  3.6226e-03  9.1520e-04  3.6859e-04  3.5263e-03  6.6938e-04  2.6070e-04  0:01:37 1605

  iter  continuity  x-velocity  y-velocity      energy           k       omega     time/iter
  2815  3.6185e-03  9.1538e-04  3.6998e-04  3.5229e-03  6.6793e-04  2.5864e-04  0:01:17 1604
  2816  3.6109e-03  8.8190e-04  3.7147e-04  3.5160e-03  6.6620e-04  2.5665e-04  0:01:02 1603
  2817  3.6036e-03  8.6732e-04  3.7277e-04  3.5093e-03  6.6420e-04  2.5504e-04  0:00:49 1602
  2818  3.5956e-03  8.6626e-04  3.7082e-04  3.5018e-03  6.6187e-04  2.5347e-04  0:06:00 1601
  2819  3.5876e-03  8.7644e-04  3.7301e-04  3.4940e-03  6.5937e-04  2.5190e-04  0:04:48 1600
  2820  3.5760e-03  8.6691e-04  3.7468e-04  3.4830e-03  6.5676e-04  2.5042e-04  0:03:50 1599
  2821  3.5637e-03  8.5307e-04  3.7644e-04  3.4714e-03  6.5392e-04  2.4905e-04  0:03:04 1598
  2822  3.5509e-03  8.5507e-04  3.7956e-04  3.4591e-03  6.5091e-04  2.4777e-04  0:02:27 1597
  2823  3.5378e-03  8.6426e-04  3.8176e-04  3.4466e-03  6.4769e-04  2.4654e-04  0:01:58 1596
  2824  3.5243e-03  8.8617e-04  3.7804e-04  3.4340e-03  6.4431e-04  2.4518e-04  0:01:34 1595
  2825  3.5087e-03  8.8510e-04  3.7368e-04  3.4190e-03  6.4084e-04  2.4426e-04  0:01:15 1594

  iter  continuity  x-velocity  y-velocity      energy           k       omega     time/iter
  2826  3.4932e-03  8.9433e-04  3.7300e-04  3.4041e-03  6.3721e-04  2.4337e-04  0:01:00 1593
  2827  3.4751e-03  8.9855e-04  3.7279e-04  3.3868e-03  6.3347e-04  2.4261e-04  0:00:48 1592
  2828  3.4569e-03  8.9850e-04  3.7246e-04  3.3693e-03  6.2957e-04  2.4196e-04  0:05:57 1591
  2829  3.4387e-03  8.8209e-04  3.7434e-04  3.3516e-03  6.2551e-04  2.4124e-04  0:04:45 1590
  2830  3.4250e-03  9.1587e-04  3.7694e-04  3.3380e-03  6.2139e-04  2.4049e-04  0:03:48 1589
  2831  3.4087e-03  9.3427e-04  3.7795e-04  3.3214e-03  6.1723e-04  2.3960e-04  0:03:02 1588
  2832  3.3846e-03  9.1190e-04  3.7641e-04  3.2977e-03  6.1298e-04  2.3848e-04  0:02:26 1587
  2833  3.3573e-03  8.4595e-04  3.7150e-04  3.2718e-03  6.0867e-04  2.3728e-04  0:01:56 1586
  2834  3.3313e-03  8.1864e-04  3.6881e-04  3.2472e-03  6.0426e-04  2.3609e-04  0:01:33 1585
  2835  3.3066e-03  8.1419e-04  3.6784e-04  3.2235e-03  5.9982e-04  2.3485e-04  0:01:14 1584
  2836  3.2810e-03  8.0688e-04  3.6595e-04  3.1984e-03  5.9550e-04  2.3361e-04  0:01:00 1583

  iter  continuity  x-velocity  y-velocity      energy           k       omega     time/iter
  2837  3.2547e-03  7.9393e-04  3.6420e-04  3.1721e-03  5.9128e-04  2.3235e-04  0:00:48 1582
  2838  3.2274e-03  7.8991e-04  3.6332e-04  3.1449e-03  5.8725e-04  2.3137e-04  0:05:54 1581
  2839  3.1985e-03  7.7675e-04  3.6170e-04  3.1161e-03  5.8328e-04  2.3052e-04  0:04:43 1580
  2840  3.1693e-03  7.7271e-04  3.6109e-04  3.0871e-03  5.7937e-04  2.2976e-04  0:03:46 1579
  2841  3.1385e-03  7.8166e-04  3.6346e-04  3.0567e-03  5.7552e-04  2.2904e-04  0:03:01 1578
  2842  3.1085e-03  8.0149e-04  3.6543e-04  3.0267e-03  5.7178e-04  2.2839e-04  0:02:25 1577
  2843  3.0770e-03  8.0799e-04  3.6488e-04  2.9952e-03  5.6813e-04  2.2805e-04  0:01:56 1576
  2844  3.0466e-03  8.1042e-04  3.6501e-04  2.9647e-03  5.6453e-04  2.2774e-04  0:01:33 1575
  2845  3.0172e-03  8.2037e-04  3.6485e-04  2.9352e-03  5.6096e-04  2.2727e-04  0:01:14 1574
  2846  2.9866e-03  8.2114e-04  3.6124e-04  2.9051e-03  5.5751e-04  2.2700e-04  0:06:14 1573
  2847  2.9578e-03  8.2002e-04  3.5769e-04  2.8762e-03  5.5415e-04  2.2680e-04  0:04:59 1572

  iter  continuity  x-velocity  y-velocity      energy           k       omega     time/iter
  2848  2.9297e-03  8.2723e-04  3.5348e-04  2.8481e-03  5.5084e-04  2.2666e-04  0:03:59 1571
  2849  2.9042e-03  8.5104e-04  3.4956e-04  2.8226e-03  5.4756e-04  2.2649e-04  0:03:11 1570
  2850  2.8769e-03  8.6902e-04  3.4519e-04  2.7956e-03  5.4439e-04  2.2638e-04  0:02:33 1569
  2851  2.8488e-03  8.5197e-04  3.4679e-04  2.7681e-03  5.4140e-04  2.2643e-04  0:02:02 1568
  2852  2.8230e-03  8.4595e-04  3.4468e-04  2.7428e-03  5.3845e-04  2.2645e-04  0:01:38 1567
  2853  2.8015e-03  8.7508e-04  3.4197e-04  2.7217e-03  5.3554e-04  2.2632e-04  0:01:18 1566
  2854  2.7782e-03  8.9326e-04  3.3819e-04  2.6987e-03  5.3261e-04  2.2612e-04  0:01:02 1565
  2855  2.7572e-03  8.8698e-04  3.4029e-04  2.6780e-03  5.2982e-04  2.2574e-04  0:00:50 1564
  2856  2.7442e-03  9.4006e-04  3.4602e-04  2.6646e-03  5.2709e-04  2.2540e-04  0:00:40 1563
  2857  2.7304e-03  9.7894e-04  3.4717e-04  2.6501e-03  5.2435e-04  2.2531e-04  0:05:44 1562
  2858  2.7095e-03  9.7591e-04  3.4702e-04  2.6298e-03  5.2167e-04  2.2515e-04  0:04:35 1561

  iter  continuity  x-velocity  y-velocity      energy           k       omega     time/iter
  2859  2.6818e-03  9.1179e-04  3.4555e-04  2.6042e-03  5.1915e-04  2.2498e-04  0:03:40 1560
  2860  2.6604e-03  8.8780e-04  3.4605e-04  2.5840e-03  5.1665e-04  2.2464e-04  0:02:56 1559
  2861  2.6415e-03  8.7594e-04  3.3955e-04  2.5659e-03  5.1414e-04  2.2413e-04  0:02:21 1558
  2862  2.6237e-03  8.6270e-04  3.3736e-04  2.5484e-03  5.1159e-04  2.2365e-04  0:01:52 1557
  2863  2.6052e-03  8.4919e-04  3.3328e-04  2.5300e-03  5.0911e-04  2.2312e-04  0:01:30 1556
  2864  2.5877e-03  8.3356e-04  3.3224e-04  2.5124e-03  5.0690e-04  2.2262e-04  0:01:12 1555
  2865  2.5695e-03  8.3307e-04  3.3246e-04  2.4943e-03  5.0472e-04  2.2212e-04  0:00:57 1554
  2866  2.5539e-03  8.4565e-04  3.3371e-04  2.4785e-03  5.0248e-04  2.2155e-04  0:00:46 1553
  2867  2.5372e-03  8.5365e-04  3.3126e-04  2.4614e-03  5.0023e-04  2.2112e-04  0:05:47 1552
  2868  2.5216e-03  8.5301e-04  3.2863e-04  2.4454e-03  4.9799e-04  2.2089e-04  0:04:38 1551
  2869  2.5088e-03  8.5978e-04  3.2893e-04  2.4321e-03  4.9589e-04  2.2071e-04  0:03:42 1550

  iter  continuity  x-velocity  y-velocity      energy           k       omega     time/iter
  2870  2.4963e-03  8.7686e-04  3.2844e-04  2.4198e-03  4.9395e-04  2.2058e-04  0:02:57 1549
  2871  2.4848e-03  8.9857e-04  3.2704e-04  2.4079e-03  4.9224e-04  2.2036e-04  0:02:22 1548
  2872  2.4741e-03  9.2576e-04  3.2585e-04  2.3974e-03  4.9068e-04  2.2056e-04  0:01:53 1547
  2873  2.4579e-03  9.0519e-04  3.2352e-04  2.3818e-03  4.8931e-04  2.2067e-04  0:01:31 1546
  2874  2.4451e-03  8.9798e-04  3.1917e-04  2.3705e-03  4.8815e-04  2.2065e-04  0:01:12 1545
  2875  2.4343e-03  8.9009e-04  3.1987e-04  2.3603e-03  4.8709e-04  2.2070e-04  0:00:58 1544
  2876  2.4259e-03  8.9859e-04  3.1856e-04  2.3524e-03  4.8621e-04  2.2040e-04  0:00:46 1543
  2877  2.4210e-03  9.3258e-04  3.1894e-04  2.3481e-03  4.8546e-04  2.1934e-04  0:05:45 1542
  2878  2.4156e-03  9.4446e-04  3.1917e-04  2.3427e-03  4.8497e-04  2.1873e-04  0:04:36 1541
  2879  2.4115e-03  9.5106e-04  3.2109e-04  2.3383e-03  4.8466e-04  2.1882e-04  0:03:41 1540
  2880  2.4097e-03  9.6096e-04  3.2051e-04  2.3364e-03  4.8453e-04  2.1873e-04  0:02:57 1539

  iter  continuity  x-velocity  y-velocity      energy           k       omega     time/iter
  2881  2.4058e-03  9.5784e-04  3.2163e-04  2.3319e-03  4.8457e-04  2.1856e-04  0:02:21 1538
  2882  2.4075e-03  9.8895e-04  3.2896e-04  2.3325e-03  4.8467e-04  2.1820e-04  0:01:53 1537
  2883  2.3874e-03  9.3082e-04  3.3115e-04  2.3132e-03  4.8490e-04  2.1768e-04  0:01:30 1536
  2884  2.3742e-03  8.9203e-04  3.3004e-04  2.3013e-03  4.8537e-04  2.1719e-04  0:01:12 1535
  2885  2.3633e-03  8.6969e-04  3.2634e-04  2.2913e-03  4.8591e-04  2.1674e-04  0:00:58 1534
  2886  2.3551e-03  8.5826e-04  3.2332e-04  2.2835e-03  4.8651e-04  2.1620e-04  0:00:46 1533
  2887  2.3465e-03  8.5399e-04  3.1988e-04  2.2750e-03  4.8711e-04  2.1601e-04  0:05:43 1532
  2888  2.3392e-03  8.5494e-04  3.1512e-04  2.2674e-03  4.8765e-04  2.1583e-04  0:04:34 1531
  2889  2.3330e-03  8.6038e-04  3.1109e-04  2.2609e-03  4.8816e-04  2.1545e-04  0:03:39 1530
  2890  2.3291e-03  8.7271e-04  3.0846e-04  2.2567e-03  4.8873e-04  2.1495e-04  0:02:55 1529
  2891  2.3245e-03  8.7512e-04  3.0867e-04  2.2519e-03  4.8929e-04  2.1443e-04  0:02:20 1528

  iter  continuity  x-velocity  y-velocity      energy           k       omega     time/iter
  2892  2.3191e-03  8.7726e-04  3.0834e-04  2.2469e-03  4.9004e-04  2.1433e-04  0:01:52 1527
  2893  2.3148e-03  8.8635e-04  3.0909e-04  2.2428e-03  4.9081e-04  2.1417e-04  0:01:30 1526
  2894  2.3142e-03  9.0335e-04  3.0527e-04  2.2423e-03  4.9148e-04  2.1395e-04  0:01:12 1525
  2895  2.3150e-03  9.2579e-04  3.0198e-04  2.2433e-03  4.9222e-04  2.1383e-04  0:00:57 1524
  2896  2.3134e-03  9.3520e-04  3.0277e-04  2.2425e-03  4.9301e-04  2.1363e-04  0:00:46 1523
  2897  2.3109e-03  9.3151e-04  3.0527e-04  2.2401e-03  4.9388e-04  2.1330e-04  0:00:37 1522
  2898  2.3112e-03  9.4641e-04  3.0540e-04  2.2405e-03  4.9482e-04  2.1291e-04  0:05:33 1521
  2899  2.3105e-03  9.6725e-04  3.0921e-04  2.2403e-03  4.9593e-04  2.1240e-04  0:04:27 1520
  2900  2.3082e-03  9.5624e-04  3.0832e-04  2.2392e-03  4.9714e-04  2.1131e-04  0:03:33 1519
  2901  2.3086e-03  9.5535e-04  3.1311e-04  2.2398e-03  4.9845e-04  2.1040e-04  0:02:50 1518
  2902  2.3118e-03  9.6325e-04  3.2334e-04  2.2428e-03  4.9979e-04  2.0990e-04  0:02:16 1517

  iter  continuity  x-velocity  y-velocity      energy           k       omega     time/iter
  2903  2.3133e-03  9.5329e-04  3.2872e-04  2.2442e-03  5.0119e-04  2.0965e-04  0:01:49 1516
  2904  2.3196e-03  9.6665e-04  3.3622e-04  2.2500e-03  5.0258e-04  2.0936e-04  0:01:27 1515
  2905  2.3287e-03  9.8742e-04  3.3934e-04  2.2583e-03  5.0397e-04  2.0903e-04  0:01:10 1514
  2906  2.3300e-03  9.8358e-04  3.3786e-04  2.2601e-03  5.0526e-04  2.0867e-04  0:00:56 1513
  2907  2.3217e-03  9.0913e-04  3.2958e-04  2.2537e-03  5.0640e-04  2.0816e-04  0:00:44 1512
  2908  2.3219e-03  8.9716e-04  3.2160e-04  2.2553e-03  5.0729e-04  2.0754e-04  0:05:38 1511
  2909  2.3245e-03  8.9930e-04  3.1410e-04  2.2585e-03  5.0796e-04  2.0676e-04  0:04:30 1510
  2910  2.3255e-03  8.9656e-04  3.0562e-04  2.2599e-03  5.0844e-04  2.0606e-04  0:03:36 1509
  2911  2.3272e-03  8.8013e-04  3.0058e-04  2.2618e-03  5.0888e-04  2.0565e-04  0:02:53 1508
  2912  2.3290e-03  8.7906e-04  2.9648e-04  2.2642e-03  5.0935e-04  2.0522e-04  0:02:18 1507
  2913  2.3308e-03  8.7754e-04  2.9301e-04  2.2666e-03  5.0987e-04  2.0482e-04  0:01:50 1506

  iter  continuity  x-velocity  y-velocity      energy           k       omega     time/iter
  2914  2.3320e-03  8.7612e-04  2.9163e-04  2.2682e-03  5.1038e-04  2.0441e-04  0:01:28 1505
  2915  2.3360e-03  8.8614e-04  2.8800e-04  2.2723e-03  5.1086e-04  2.0388e-04  0:06:11 1504
  2916  2.3409e-03  8.9759e-04  2.9144e-04  2.2775e-03  5.1134e-04  2.0322e-04  0:04:57 1503
  2917  2.3448e-03  8.9362e-04  2.9696e-04  2.2818e-03  5.1173e-04  2.0260e-04  0:03:57 1502
  2918  2.3501e-03  9.0317e-04  2.9904e-04  2.2873e-03  5.1217e-04  2.0201e-04  0:03:10 1501
  2919  2.3549e-03  9.2858e-04  2.9494e-04  2.2921e-03  5.1263e-04  2.0165e-04  0:02:32 1500
  2920  2.3626e-03  9.6780e-04  2.9560e-04  2.3002e-03  5.1311e-04  2.0114e-04  0:02:01 1499
  2921  2.3589e-03  9.4541e-04  2.9794e-04  2.2976e-03  5.1367e-04  2.0049e-04  0:01:37 1498
  2922  2.3540e-03  9.0132e-04  3.0328e-04  2.2936e-03  5.1415e-04  1.9987e-04  0:01:18 1497
  2923  2.3547e-03  9.0991e-04  3.0437e-04  2.2949e-03  5.1468e-04  1.9929e-04  0:01:02 1496
  2924  2.3547e-03  9.2505e-04  3.0737e-04  2.2957e-03  5.1518e-04  1.9851e-04  0:05:49 1495

  iter  continuity  x-velocity  y-velocity      energy           k       omega     time/iter
  2925  2.3550e-03  9.1531e-04  3.0502e-04  2.2969e-03  5.1561e-04  1.9721e-04  0:04:39 1494
  2926  2.3572e-03  9.3128e-04  3.0709e-04  2.2992e-03  5.1580e-04  1.9612e-04  0:03:43 1493
  2927  2.3586e-03  9.3432e-04  3.0463e-04  2.3003e-03  5.1587e-04  1.9563e-04  0:02:58 1492
  2928  2.3635e-03  9.4765e-04  3.0442e-04  2.3039e-03  5.1578e-04  1.9491e-04  0:02:22 1491
  2929  2.3598e-03  9.5484e-04  3.0485e-04  2.3003e-03  5.1555e-04  1.9405e-04  0:01:54 1490
  2930  2.3430e-03  8.6928e-04  2.9441e-04  2.2852e-03  5.1528e-04  1.9322e-04  0:01:31 1489
  2931  2.3338e-03  8.3408e-04  2.9106e-04  2.2773e-03  5.1493e-04  1.9243e-04  0:01:13 1488
  2932  2.3261e-03  8.2081e-04  2.8812e-04  2.2706e-03  5.1448e-04  1.9190e-04  0:00:58 1487
  2933  2.3167e-03  8.0754e-04  2.8525e-04  2.2622e-03  5.1401e-04  1.9158e-04  0:00:46 1486
  2934  2.3088e-03  8.0032e-04  2.8091e-04  2.2546e-03  5.1362e-04  1.9136e-04  0:05:34 1485
  2935  2.3016e-03  7.9425e-04  2.8205e-04  2.2475e-03  5.1327e-04  1.9123e-04  0:04:27 1484

  iter  continuity  x-velocity  y-velocity      energy           k       omega     time/iter
  2936  2.2963e-03  7.9010e-04  2.8306e-04  2.2421e-03  5.1287e-04  1.9096e-04  0:03:34 1483
  2937  2.2917e-03  7.9115e-04  2.8646e-04  2.2374e-03  5.1254e-04  1.9050e-04  0:02:51 1482
  2938  2.2842e-03  7.8969e-04  2.8749e-04  2.2308e-03  5.1228e-04  1.9009e-04  0:02:17 1481
  2939  2.2796e-03  8.0068e-04  2.8816e-04  2.2262e-03  5.1206e-04  1.8984e-04  0:01:49 1480
  2940  2.2756e-03  8.1094e-04  2.8719e-04  2.2223e-03  5.1187e-04  1.8927e-04  0:01:27 1479
  2941  2.2741e-03  8.1872e-04  2.8779e-04  2.2206e-03  5.1175e-04  1.8877e-04  0:01:10 1478
  2942  2.2713e-03  8.3011e-04  2.9294e-04  2.2180e-03  5.1158e-04  1.8835e-04  0:00:56 1477
  2943  2.2651e-03  8.0238e-04  3.0020e-04  2.2122e-03  5.1144e-04  1.8804e-04  0:00:45 1476
  2944  2.2602e-03  7.8526e-04  2.9464e-04  2.2078e-03  5.1128e-04  1.8765e-04  0:05:31 1475
  2945  2.2601e-03  8.0360e-04  2.9406e-04  2.2082e-03  5.1115e-04  1.8718e-04  0:04:24 1474
  2946  2.2595e-03  8.2950e-04  2.9376e-04  2.2083e-03  5.1095e-04  1.8652e-04  0:03:31 1473

  iter  continuity  x-velocity  y-velocity      energy           k       omega     time/iter
  2947  2.2573e-03  8.2451e-04  2.8921e-04  2.2063e-03  5.1066e-04  1.8572e-04  0:02:49 1472
  2948  2.2573e-03  8.2927e-04  2.8691e-04  2.2066e-03  5.1026e-04  1.8493e-04  0:02:15 1471
  2949  2.2623e-03  8.6218e-04  2.8637e-04  2.2113e-03  5.0976e-04  1.8430e-04  0:01:48 1470
  2950  2.2609e-03  8.5664e-04  2.8392e-04  2.2099e-03  5.0927e-04  1.8334e-04  0:01:26 1469
  2951  2.2673e-03  8.7889e-04  2.8502e-04  2.2154e-03  5.0869e-04  1.8189e-04  0:01:09 1468
  2952  2.2703e-03  9.0329e-04  2.8716e-04  2.2179e-03  5.0804e-04  1.8080e-04  0:00:55 1467
  2953  2.2510e-03  7.9124e-04  2.8187e-04  2.2005e-03  5.0741e-04  1.8020e-04  0:00:44 1466
  2954  2.2406e-03  7.4546e-04  2.7498e-04  2.1920e-03  5.0686e-04  1.7949e-04  0:00:35 1465
  2955  2.2342e-03  7.2915e-04  2.6940e-04  2.1868e-03  5.0616e-04  1.7871e-04  0:05:21 1464
  2956  2.2296e-03  7.2338e-04  2.6607e-04  2.1827e-03  5.0540e-04  1.7794e-04  0:04:17 1463
  2957  2.2240e-03  7.0547e-04  2.6055e-04  2.1773e-03  5.0458e-04  1.7714e-04  0:03:25 1462

  iter  continuity  x-velocity  y-velocity      energy           k       omega     time/iter
  2958  2.2192e-03  6.9184e-04  2.6129e-04  2.1723e-03  5.0386e-04  1.7658e-04  0:02:44 1461
  2959  2.2141e-03  6.9907e-04  2.6074e-04  2.1677e-03  5.0315e-04  1.7594e-04  0:02:11 1460
  2960  2.2080e-03  7.0653e-04  2.6150e-04  2.1623e-03  5.0244e-04  1.7526e-04  0:01:45 1459
  2961  2.2050e-03  7.1864e-04  2.6332e-04  2.1594e-03  5.0177e-04  1.7474e-04  0:01:24 1458
  2962  2.2035e-03  7.3672e-04  2.6509e-04  2.1579e-03  5.0109e-04  1.7416e-04  0:01:07 1457
  2963  2.2015e-03  7.3623e-04  2.6666e-04  2.1555e-03  5.0047e-04  1.7350e-04  0:00:54 1456
  2964  2.2011e-03  7.4781e-04  2.6797e-04  2.1546e-03  4.9992e-04  1.7280e-04  0:00:43 1455
  2965  2.1959e-03  7.4069e-04  2.7195e-04  2.1500e-03  4.9946e-04  1.7228e-04  0:05:25 1454
  2966  2.1935e-03  7.3033e-04  2.7384e-04  2.1474e-03  4.9900e-04  1.7153e-04  0:04:20 1453
  2967  2.1968e-03  7.6870e-04  2.7216e-04  2.1505e-03  4.9868e-04  1.7071e-04  0:03:28 1452
  2968  2.1949e-03  7.9289e-04  2.7215e-04  2.1487e-03  4.9832e-04  1.6982e-04  0:02:46 1451

  iter  continuity  x-velocity  y-velocity      energy           k       omega     time/iter
  2969  2.1841e-03  7.5339e-04  2.6840e-04  2.1390e-03  4.9797e-04  1.6882e-04  0:02:13 1450
  2970  2.1792e-03  7.2442e-04  2.6580e-04  2.1350e-03  4.9759e-04  1.6756e-04  0:01:46 1449
  2971  2.1784e-03  7.2966e-04  2.6432e-04  2.1346e-03  4.9718e-04  1.6630e-04  0:01:25 1448
  2972  2.1804e-03  7.7446e-04  2.6419e-04  2.1367e-03  4.9675e-04  1.6558e-04  0:01:08 1447
  2973  2.1774e-03  7.7475e-04  2.6063e-04  2.1339e-03  4.9637e-04  1.6492e-04  0:00:54 1446
  2974  2.1788e-03  7.6001e-04  2.6370e-04  2.1351e-03  4.9594e-04  1.6445e-04  0:05:32 1445
  2975  2.1827e-03  7.9529e-04  2.6400e-04  2.1379e-03  4.9555e-04  1.6376e-04  0:04:26 1444
  2976  2.1859e-03  8.1319e-04  2.6067e-04  2.1403e-03  4.9511e-04  1.6225e-04  0:03:32 1443
  2977  2.1691e-03  7.4292e-04  2.5824e-04  2.1246e-03  4.9462e-04  1.6078e-04  0:02:50 1442
  2978  2.1587e-03  6.8250e-04  2.5379e-04  2.1154e-03  4.9411e-04  1.5976e-04  0:02:16 1441
  2979  2.1507e-03  6.5847e-04  2.4729e-04  2.1085e-03  4.9353e-04  1.5901e-04  0:01:49 1440

  iter  continuity  x-velocity  y-velocity      energy           k       omega     time/iter
  2980  2.1450e-03  6.4525e-04  2.4526e-04  2.1031e-03  4.9296e-04  1.5830e-04  0:01:27 1439
  2981  2.1394e-03  6.2452e-04  2.4364e-04  2.0975e-03  4.9234e-04  1.5757e-04  0:01:09 1438
  2982  2.1314e-03  6.0266e-04  2.4482e-04  2.0900e-03  4.9168e-04  1.5684e-04  0:00:55 1437
  2983  2.1265e-03  6.0592e-04  2.4142e-04  2.0850e-03  4.9103e-04  1.5614e-04  0:00:44 1436
  2984  2.1214e-03  6.0293e-04  2.3734e-04  2.0796e-03  4.9039e-04  1.5538e-04  0:05:22 1435
  2985  2.1158e-03  5.9737e-04  2.3523e-04  2.0737e-03  4.8982e-04  1.5454e-04  0:04:18 1434
  2986  2.1113e-03  6.0581e-04  2.3483e-04  2.0686e-03  4.8932e-04  1.5354e-04  0:03:26 1433
  2987  2.1074e-03  6.2700e-04  2.3877e-04  2.0641e-03  4.8884e-04  1.5277e-04  0:02:45 1432
  2988  2.0997e-03  6.3331e-04  2.3786e-04  2.0567e-03  4.8845e-04  1.5202e-04  0:02:12 1431
  2989  2.0949e-03  6.5338e-04  2.3847e-04  2.0520e-03  4.8815e-04  1.5128e-04  0:01:45 1430
  2990  2.0866e-03  6.4778e-04  2.4439e-04  2.0435e-03  4.8784e-04  1.5049e-04  0:01:24 1429

  iter  continuity  x-velocity  y-velocity      energy           k       omega     time/iter
  2991  2.0773e-03  6.3255e-04  2.4369e-04  2.0339e-03  4.8758e-04  1.4970e-04  0:01:07 1428
  2992  2.0704e-03  6.5250e-04  2.4304e-04  2.0267e-03  4.8739e-04  1.4886e-04  0:00:54 1427
  2993  2.0595e-03  6.6011e-04  2.4233e-04  2.0162e-03  4.8722e-04  1.4800e-04  0:05:28 1426
  2994  2.0501e-03  6.5941e-04  2.4037e-04  2.0071e-03  4.8694e-04  1.4721e-04  0:04:22 1425
  2995  2.0375e-03  6.4864e-04  2.4108e-04  1.9946e-03  4.8658e-04  1.4623e-04  0:03:30 1424
  2996  2.0254e-03  6.6744e-04  2.4082e-04  1.9826e-03  4.8612e-04  1.4537e-04  0:02:48 1423
  2997  2.0132e-03  6.9463e-04  2.3656e-04  1.9706e-03  4.8567e-04  1.4458e-04  0:02:14 1422
  2998  2.0001e-03  6.9915e-04  2.3298e-04  1.9575e-03  4.8523e-04  1.4387e-04  0:01:47 1421
  2999  1.9875e-03  7.0760e-04  2.3792e-04  1.9445e-03  4.8477e-04  1.4332e-04  0:01:26 1420
  3000  1.9779e-03  7.2084e-04  2.3947e-04  1.9345e-03  4.8435e-04  1.4279e-04  0:01:08 1419
  3001  1.9653e-03  7.3756e-04  2.3964e-04  1.9206e-03  4.8394e-04  1.4224e-04  0:00:55 1418

  iter  continuity  x-velocity  y-velocity      energy           k       omega     time/iter
  3002  1.9550e-03  7.7755e-04  2.4075e-04  1.9098e-03  4.8356e-04  1.4171e-04  0:05:27 1417
  3003  1.9242e-03  6.9248e-04  2.3713e-04  1.8806e-03  4.8322e-04  1.4117e-04  0:04:22 1416
  3004  1.9026e-03  6.4469e-04  2.3236e-04  1.8603e-03  4.8286e-04  1.4031e-04  0:03:29 1415
  3005  1.8827e-03  6.2615e-04  2.3199e-04  1.8413e-03  4.8244e-04  1.3921e-04  0:02:47 1414
  3006  1.8638e-03  6.2510e-04  2.2658e-04  1.8230e-03  4.8202e-04  1.3820e-04  0:02:14 1413
  3007  1.8457e-03  6.0880e-04  2.1957e-04  1.8051e-03  4.8156e-04  1.3752e-04  0:01:47 1412
  3008  1.8297e-03  6.0204e-04  2.1777e-04  1.7886e-03  4.8110e-04  1.3679e-04  0:01:25 1411
  3009  1.8175e-03  6.0992e-04  2.1840e-04  1.7755e-03  4.8061e-04  1.3602e-04  0:01:08 1410
  3010  1.8047e-03  6.3720e-04  2.1669e-04  1.7618e-03  4.8008e-04  1.3532e-04  0:00:55 1409
  3011  1.7943e-03  6.6499e-04  2.2026e-04  1.7511e-03  4.7953e-04  1.3455e-04  0:00:44 1408
  3012  1.7714e-03  6.3303e-04  2.2011e-04  1.7287e-03  4.7898e-04  1.3372e-04  0:00:35 1407

  iter  continuity  x-velocity  y-velocity      energy           k       omega     time/iter
  3013  1.7520e-03  5.9511e-04  2.1948e-04  1.7103e-03  4.7845e-04  1.3286e-04  0:05:09 1406
  3014  1.7347e-03  5.7754e-04  2.2080e-04  1.6934e-03  4.7795e-04  1.3193e-04  0:04:07 1405
  3015  1.7186e-03  5.7518e-04  2.2228e-04  1.6774e-03  4.7746e-04  1.3125e-04  0:03:18 1404
  3016  1.7051e-03  5.7845e-04  2.1871e-04  1.6635e-03  4.7697e-04  1.3059e-04  0:02:38 1403
  3017  1.6942e-03  5.8669e-04  2.2314e-04  1.6520e-03  4.7644e-04  1.2991e-04  0:02:06 1402
  3018  1.6823e-03  6.0409e-04  2.2808e-04  1.6398e-03  4.7586e-04  1.2925e-04  0:01:41 1401
  3019  1.6676e-03  6.0713e-04  2.2797e-04  1.6254e-03  4.7535e-04  1.2865e-04  0:01:21 1400
  3020  1.6513e-03  5.9380e-04  2.2632e-04  1.6089e-03  4.7481e-04  1.2808e-04  0:01:04 1399
  3021  1.6355e-03  5.8356e-04  2.2177e-04  1.5931e-03  4.7418e-04  1.2750e-04  0:00:52 1398
  3022  1.6218e-03  5.8599e-04  2.2111e-04  1.5792e-03  4.7346e-04  1.2691e-04  0:00:41 1397
  3023  1.6112e-03  6.1267e-04  2.2255e-04  1.5686e-03  4.7263e-04  1.2643e-04  0:05:12 1396

  iter  continuity  x-velocity  y-velocity      energy           k       omega     time/iter
  3024  1.5949e-03  6.0391e-04  2.2295e-04  1.5522e-03  4.7177e-04  1.2593e-04  0:04:10 1395
  3025  1.5822e-03  6.0925e-04  2.2102e-04  1.5392e-03  4.7087e-04  1.2541e-04  0:03:19 1394
  3026  1.5719e-03  6.1732e-04  2.2393e-04  1.5288e-03  4.7003e-04  1.2492e-04  0:02:39 1393
  3027  1.5669e-03  6.4328e-04  2.2230e-04  1.5233e-03  4.6918e-04  1.2440e-04  0:02:07 1392
  3028  1.5569e-03  6.4744e-04  2.2240e-04  1.5129e-03  4.6832e-04  1.2377e-04  0:01:42 1391
  3029  1.5556e-03  6.5571e-04  2.2227e-04  1.5108e-03  4.6745e-04  1.2313e-04  0:01:21 1390
  3030  1.5568e-03  7.1060e-04  2.2644e-04  1.5107e-03  4.6653e-04  1.2268e-04  0:01:05 1389
  3031  1.5407e-03  6.6451e-04  2.2182e-04  1.4955e-03  4.6560e-04  1.2215e-04  0:00:52 1388
  3032  1.5287e-03  5.9485e-04  2.1742e-04  1.4848e-03  4.6464e-04  1.2156e-04  0:00:42 1387
  3033  1.5226e-03  5.6995e-04  2.1568e-04  1.4798e-03  4.6364e-04  1.2103e-04  0:00:33 1386
  3034  1.5183e-03  5.3945e-04  2.1263e-04  1.4762e-03  4.6262e-04  1.2059e-04  0:05:04 1385

  iter  continuity  x-velocity  y-velocity      energy           k       omega     time/iter
  3035  1.5182e-03  5.2598e-04  2.1052e-04  1.4765e-03  4.6156e-04  1.2015e-04  0:04:03 1384
  3036  1.5223e-03  5.3350e-04  2.1120e-04  1.4807e-03  4.6049e-04  1.1968e-04  0:03:14 1383
  3037  1.5288e-03  5.3620e-04  2.1161e-04  1.4871e-03  4.5937e-04  1.1913e-04  0:02:35 1382
  3038  1.5347e-03  5.2902e-04  2.1027e-04  1.4929e-03  4.5820e-04  1.1844e-04  0:02:04 1381
  3039  1.5401e-03  5.1687e-04  2.1158e-04  1.4986e-03  4.5697e-04  1.1745e-04  0:01:39 1380
  3040  1.5494e-03  5.3473e-04  2.1057e-04  1.5080e-03  4.5574e-04  1.1659e-04  0:01:19 1379
  3041  1.5567e-03  5.2827e-04  2.0913e-04  1.5157e-03  4.5449e-04  1.1584e-04  0:01:03 1378
  3042  1.5659e-03  5.2678e-04  2.0977e-04  1.5250e-03  4.5326e-04  1.1533e-04  0:00:51 1377
  3043  1.5769e-03  5.2531e-04  2.1166e-04  1.5361e-03  4.5210e-04  1.1475e-04  0:00:40 1376
  3044  1.5907e-03  5.3291e-04  2.1441e-04  1.5498e-03  4.5096e-04  1.1424e-04  0:05:07 1375
  3045  1.6068e-03  5.5470e-04  2.1454e-04  1.5657e-03  4.4988e-04  1.1383e-04  0:04:06 1374

  iter  continuity  x-velocity  y-velocity      energy           k       omega     time/iter
  3046  1.6195e-03  5.5924e-04  2.1331e-04  1.5787e-03  4.4883e-04  1.1345e-04  0:03:16 1373
  3047  1.6330e-03  5.6670e-04  2.1334e-04  1.5929e-03  4.4786e-04  1.1302e-04  0:02:37 1372
  3048  1.6499e-03  5.7844e-04  2.1876e-04  1.6102e-03  4.4697e-04  1.1278e-04  0:02:06 1371
  3049  1.6675e-03  5.7448e-04  2.2310e-04  1.6280e-03  4.4619e-04  1.1274e-04  0:01:40 1370
  3050  1.6885e-03  5.8610e-04  2.2208e-04  1.6491e-03  4.4593e-04  1.1268e-04  0:01:20 1369
  3051  1.7130e-03  6.0777e-04  2.2409e-04  1.6733e-03  4.4612e-04  1.1255e-04  0:05:38 1368
  3052  1.7315e-03  6.0661e-04  2.2510e-04  1.6924e-03  4.4663e-04  1.1253e-04  0:04:30 1367
  3053  1.7571e-03  6.0465e-04  2.2359e-04  1.7181e-03  4.4733e-04  1.1251e-04  0:03:36 1366
  3054  1.7897e-03  6.4734e-04  2.2639e-04  1.7505e-03  4.4818e-04  1.1253e-04  0:02:53 1365
  3055  1.8168e-03  6.7322e-04  2.3084e-04  1.7780e-03  4.4923e-04  1.1256e-04  0:02:18 1364
  3056  1.8410e-03  6.5477e-04  2.2952e-04  1.8028e-03  4.5039e-04  1.1262e-04  0:01:50 1363

  iter  continuity  x-velocity  y-velocity      energy           k       omega     time/iter
  3057  1.8660e-03  6.2558e-04  2.2896e-04  1.8287e-03  4.5168e-04  1.1269e-04  0:01:28 1362
  3058  1.8964e-03  6.0662e-04  2.2657e-04  1.8595e-03  4.5310e-04  1.1282e-04  0:01:10 1361
  3059  1.9322e-03  6.2352e-04  2.3176e-04  1.8951e-03  4.5465e-04  1.1300e-04  0:00:56 1360
  3060  1.9707e-03  6.5458e-04  2.3446e-04  1.9327e-03  4.5626e-04  1.1311e-04  0:00:45 1359
  3061  2.0049e-03  6.8128e-04  2.3649e-04  1.9670e-03  4.5784e-04  1.1325e-04  0:05:08 1358
  3062  2.0268e-03  6.0749e-04  2.2988e-04  1.9902e-03  4.5939e-04  1.1334e-04  0:04:06 1357
  3063  2.0565e-03  5.7690e-04  2.2793e-04  2.0210e-03  4.6089e-04  1.1347e-04  0:03:17 1356
  3064  2.0876e-03  5.6319e-04  2.2677e-04  2.0528e-03  4.6236e-04  1.1359e-04  0:02:37 1355
  3065  2.1188e-03  5.4259e-04  2.2449e-04  2.0843e-03  4.6377e-04  1.1368e-04  0:02:06 1354
  3066  2.1496e-03  5.2494e-04  2.2355e-04  2.1151e-03  4.6510e-04  1.1378e-04  0:01:40 1353
  3067  2.1796e-03  5.1439e-04  2.2267e-04  2.1451e-03  4.6641e-04  1.1390e-04  0:01:20 1352

  iter  continuity  x-velocity  y-velocity      energy           k       omega     time/iter
  3068  2.2085e-03  5.0920e-04  2.1912e-04  2.1741e-03  4.6771e-04  1.1398e-04  0:01:04 1351
  3069  2.2371e-03  5.0849e-04  2.1738e-04  2.2028e-03  4.6897e-04  1.1399e-04  0:00:51 1350
  3070  2.2650e-03  5.1171e-04  2.1810e-04  2.2306e-03  4.7018e-04  1.1410e-04  0:00:41 1349
  3071  2.2912e-03  5.0898e-04  2.1800e-04  2.2567e-03  4.7134e-04  1.1419e-04  0:05:02 1348
  3072  2.3155e-03  5.0322e-04  2.1742e-04  2.2808e-03  4.7243e-04  1.1440e-04  0:04:02 1347
  3073  2.3391e-03  5.0566e-04  2.1726e-04  2.3043e-03  4.7344e-04  1.1454e-04  0:03:13 1346
  3074  2.3616e-03  5.2282e-04  2.1682e-04  2.3267e-03  4.7440e-04  1.1465e-04  0:02:34 1345
  3075  2.3801e-03  5.2749e-04  2.1644e-04  2.3453e-03  4.7529e-04  1.1470e-04  0:02:03 1344
  3076  2.3969e-03  5.2661e-04  2.1686e-04  2.3625e-03  4.7617e-04  1.1474e-04  0:01:39 1343
  3077  2.4128e-03  5.3501e-04  2.1833e-04  2.3784e-03  4.7695e-04  1.1473e-04  0:01:19 1342
  3078  2.4273e-03  5.5104e-04  2.1941e-04  2.3929e-03  4.7760e-04  1.1467e-04  0:01:03 1341

  iter  continuity  x-velocity  y-velocity      energy           k       omega     time/iter
  3079  2.4405e-03  5.7426e-04  2.1828e-04  2.4060e-03  4.7815e-04  1.1478e-04  0:00:50 1340
  3080  2.4514e-03  5.7753e-04  2.2001e-04  2.4167e-03  4.7858e-04  1.1501e-04  0:00:40 1339
  3081  2.4602e-03  5.7901e-04  2.2026e-04  2.4253e-03  4.7886e-04  1.1529e-04  0:05:00 1338
  3082  2.4647e-03  5.7682e-04  2.2096e-04  2.4301e-03  4.7907e-04  1.1553e-04  0:04:00 1337
  3083  2.4677e-03  5.7319e-04  2.2258e-04  2.4335e-03  4.7925e-04  1.1601e-04  0:03:12 1336
  3084  2.4699e-03  5.7778e-04  2.2546e-04  2.4361e-03  4.7936e-04  1.1672e-04  0:02:33 1335
  3085  2.4714e-03  5.8674e-04  2.2681e-04  2.4378e-03  4.7942e-04  1.1740e-04  0:02:02 1334
  3086  2.4724e-03  6.1580e-04  2.2693e-04  2.4389e-03  4.7937e-04  1.1806e-04  0:01:38 1333
  3087  2.4699e-03  6.3376e-04  2.2714e-04  2.4366e-03  4.7922e-04  1.1864e-04  0:01:18 1332
  3088  2.4658e-03  6.3029e-04  2.2633e-04  2.4327e-03  4.7902e-04  1.1915e-04  0:01:03 1331
  3089  2.4619e-03  6.3233e-04  2.2716e-04  2.4286e-03  4.7880e-04  1.1962e-04  0:00:50 1330

  iter  continuity  x-velocity  y-velocity      energy           k       omega     time/iter
  3090  2.4567e-03  6.4582e-04  2.2958e-04  2.4232e-03  4.7851e-04  1.2003e-04  0:00:40 1329
  3091  2.4511e-03  6.5844e-04  2.2897e-04  2.4175e-03  4.7821e-04  1.2049e-04  0:04:58 1328
  3092  2.4470e-03  7.0476e-04  2.2836e-04  2.4127e-03  4.7789e-04  1.2070e-04  0:03:58 1327
  3093  2.4404e-03  7.4134e-04  2.2792e-04  2.4060e-03  4.7757e-04  1.2091e-04  0:03:10 1326
  3094  2.4200e-03  6.8487e-04  2.2653e-04  2.3866e-03  4.7720e-04  1.2138e-04  0:02:32 1325
  3095  2.4044e-03  6.4294e-04  2.2550e-04  2.3717e-03  4.7673e-04  1.2180e-04  0:02:02 1324
  3096  2.3897e-03  6.3914e-04  2.2109e-04  2.3575e-03  4.7622e-04  1.2215e-04  0:01:37 1323
  3097  2.3736e-03  6.2898e-04  2.1756e-04  2.3416e-03  4.7563e-04  1.2243e-04  0:01:18 1322
  3098  2.3583e-03  6.3371e-04  2.1555e-04  2.3262e-03  4.7495e-04  1.2269e-04  0:01:02 1321
  3099  2.3454e-03  6.5114e-04  2.1498e-04  2.3129e-03  4.7413e-04  1.2282e-04  0:00:50 1320
  3100  2.3318e-03  6.7653e-04  2.1534e-04  2.2989e-03  4.7324e-04  1.2284e-04  0:00:40 1319

[...]
  3895  1.3798e-03  3.0453e-04  1.3877e-04  1.3383e-03  2.1300e-04  9.4359e-05  0:00:25  524
  3896  1.3737e-03  3.1367e-04  1.3793e-04  1.3321e-03  2.1292e-04  9.4206e-05  0:00:20  523
  3897  1.3678e-03  3.1736e-04  1.3791e-04  1.3261e-03  2.1285e-04  9.4075e-05  0:00:16  522
  3898  1.3616e-03  3.1399e-04  1.3848e-04  1.3197e-03  2.1278e-04  9.3967e-05  0:00:13  521
  3899  1.3558e-03  3.0857e-04  1.3886e-04  1.3137e-03  2.1273e-04  9.3866e-05  0:01:54  520
  3900  1.3509e-03  3.0500e-04  1.3955e-04  1.3085e-03  2.1270e-04  9.3764e-05  0:01:31  519
  3901  1.3459e-03  3.0380e-04  1.4002e-04  1.3033e-03  2.1270e-04  9.3652e-05  0:01:13  518
  3902  1.3412e-03  3.1519e-04  1.4044e-04  1.2984e-03  2.1274e-04  9.3530e-05  0:00:58  517
  3903  1.3365e-03  3.2835e-04  1.4052e-04  1.2937e-03  2.1283e-04  9.3416e-05  0:00:46  516

  iter  continuity  x-velocity  y-velocity      energy           k       omega     time/iter
  3904  1.3314e-03  3.3519e-04  1.4004e-04  1.2887e-03  2.1292e-04  9.3311e-05  0:00:37  515
  3905  1.3265e-03  3.2750e-04  1.3923e-04  1.2837e-03  2.1304e-04  9.3203e-05  0:00:30  514
  3906  1.3215e-03  3.1703e-04  1.3796e-04  1.2786e-03  2.1319e-04  9.3085e-05  0:00:24  513
  3907  1.3165e-03  3.1102e-04  1.3707e-04  1.2736e-03  2.1343e-04  9.2989e-05  0:00:19  512
  3908  1.3122e-03  3.1178e-04  1.3667e-04  1.2691e-03  2.1373e-04  9.2881e-05  0:00:15  511
  3909  1.3080e-03  3.1043e-04  1.3731e-04  1.2648e-03  2.1415e-04  9.2763e-05  0:01:54  510
  3910  1.3039e-03  3.1122e-04  1.3811e-04  1.2606e-03  2.1465e-04  9.2684e-05  0:01:31  509
  3911  1.2997e-03  3.0993e-04  1.3878e-04  1.2564e-03  2.1523e-04  9.2590e-05  0:01:13  508
  3912  1.2959e-03  3.0734e-04  1.3950e-04  1.2526e-03  2.1589e-04  9.2513e-05  0:00:58  507
  3913  1.2923e-03  3.0291e-04  1.4015e-04  1.2489e-03  2.1664e-04  9.2437e-05  0:00:46  506
  3914  1.2890e-03  3.0223e-04  1.4124e-04  1.2456e-03  2.1738e-04  9.2349e-05  0:00:37  505

  iter  continuity  x-velocity  y-velocity      energy           k       omega     time/iter
  3915  1.2862e-03  3.0202e-04  1.4251e-04  1.2427e-03  2.1816e-04  9.2242e-05  0:00:30  504
  3916  1.2836e-03  3.0170e-04  1.4420e-04  1.2401e-03  2.1895e-04  9.2107e-05  0:00:24  503
  3917  1.2812e-03  3.0298e-04  1.4475e-04  1.2377e-03  2.1973e-04  9.1963e-05  0:00:19  502
  3918  1.2792e-03  3.0374e-04  1.4457e-04  1.2357e-03  2.2050e-04  9.1801e-05  0:00:15  501
  3919  1.2774e-03  2.9980e-04  1.4262e-04  1.2339e-03  2.2126e-04  9.1655e-05  0:01:52  500
  3920  1.2766e-03  3.0035e-04  1.4079e-04  1.2332e-03  2.2199e-04  9.1513e-05  0:01:29  499
  3921  1.2772e-03  3.0533e-04  1.3880e-04  1.2339e-03  2.2270e-04  9.1394e-05  0:01:11  498
  3922  1.2785e-03  3.0730e-04  1.3734e-04  1.2353e-03  2.2344e-04  9.1315e-05  0:00:57  497
  3923  1.2807e-03  3.0420e-04  1.3632e-04  1.2376e-03  2.2429e-04  9.1276e-05  0:00:46  496
  3924  1.2845e-03  3.0414e-04  1.3520e-04  1.2414e-03  2.2522e-04  9.1262e-05  0:00:36  495
  3925  1.2896e-03  3.0433e-04  1.3402e-04  1.2467e-03  2.2620e-04  9.1297e-05  0:00:29  494

  iter  continuity  x-velocity  y-velocity      energy           k       omega     time/iter
  3926  1.2966e-03  3.1285e-04  1.3351e-04  1.2538e-03  2.2718e-04  9.1339e-05  0:00:23  493
  3927  1.3043e-03  3.1411e-04  1.3342e-04  1.2615e-03  2.2821e-04  9.1344e-05  0:00:18  492
  3928  1.3129e-03  3.1593e-04  1.3320e-04  1.2703e-03  2.2929e-04  9.1358e-05  0:00:15  491
  3929  1.3223e-03  3.2235e-04  1.3289e-04  1.2799e-03  2.3045e-04  9.1350e-05  0:01:50  490
  3930  1.3322e-03  3.2789e-04  1.3311e-04  1.2899e-03  2.3161e-04  9.1318e-05  0:01:28  489
  3931  1.3429e-03  3.3131e-04  1.3401e-04  1.3007e-03  2.3274e-04  9.1284e-05  0:01:10  488
  3932  1.3546e-03  3.3753e-04  1.3548e-04  1.3126e-03  2.3391e-04  9.1256e-05  0:00:56  487
  3933  1.3660e-03  3.3469e-04  1.3547e-04  1.3243e-03  2.3510e-04  9.1234e-05  0:00:45  486
  3934  1.3774e-03  3.3045e-04  1.3474e-04  1.3359e-03  2.3631e-04  9.1199e-05  0:00:36  485
  3935  1.3888e-03  3.2952e-04  1.3492e-04  1.3476e-03  2.3762e-04  9.1140e-05  0:00:28  484
  3936  1.4013e-03  3.2959e-04  1.3635e-04  1.3603e-03  2.3898e-04  9.1045e-05  0:00:23  483

  iter  continuity  x-velocity  y-velocity      energy           k       omega     time/iter
  3937  1.4126e-03  3.2414e-04  1.3678e-04  1.3720e-03  2.4037e-04  9.0959e-05  0:00:18  482
  3938  1.4254e-03  3.2671e-04  1.3641e-04  1.3851e-03  2.4175e-04  9.0845e-05  0:00:14  481
  3939  1.4376e-03  3.2197e-04  1.3628e-04  1.3977e-03  2.4312e-04  9.0661e-05  0:01:48  480
  3940  1.4496e-03  3.1807e-04  1.3629e-04  1.4099e-03  2.4441e-04  9.0421e-05  0:01:26  479
  3941  1.4629e-03  3.2116e-04  1.3590e-04  1.4235e-03  2.4568e-04  9.0244e-05  0:01:09  478
  3942  1.4768e-03  3.2733e-04  1.3598e-04  1.4378e-03  2.4697e-04  9.0060e-05  0:00:55  477
  3943  1.4909e-03  3.2948e-04  1.3590e-04  1.4521e-03  2.4827e-04  8.9877e-05  0:00:44  476
  3944  1.5053e-03  3.3379e-04  1.3647e-04  1.4668e-03  2.4955e-04  8.9676e-05  0:00:35  475
  3945  1.5194e-03  3.3805e-04  1.3598e-04  1.4812e-03  2.5078e-04  8.9490e-05  0:00:28  474
  3946  1.5339e-03  3.4228e-04  1.3494e-04  1.4960e-03  2.5192e-04  8.9290e-05  0:00:22  473
  3947  1.5482e-03  3.3970e-04  1.3337e-04  1.5107e-03  2.5297e-04  8.9062e-05  0:00:18  472

  iter  continuity  x-velocity  y-velocity      energy           k       omega     time/iter
  3948  1.5627e-03  3.3883e-04  1.3150e-04  1.5255e-03  2.5393e-04  8.8809e-05  0:00:14  471
  3949  1.5772e-03  3.3742e-04  1.2908e-04  1.5405e-03  2.5481e-04  8.8532e-05  0:01:45  470
  3950  1.5921e-03  3.3497e-04  1.2667e-04  1.5556e-03  2.5559e-04  8.8226e-05  0:01:24  469
  3951  1.6074e-03  3.3851e-04  1.2528e-04  1.5712e-03  2.5629e-04  8.7927e-05  0:01:07  468
  3952  1.6232e-03  3.4796e-04  1.2482e-04  1.5871e-03  2.5692e-04  8.7625e-05  0:00:54  467
  3953  1.6387e-03  3.4600e-04  1.2406e-04  1.6029e-03  2.5752e-04  8.7375e-05  0:00:43  466
  3954  1.6544e-03  3.3860e-04  1.2349e-04  1.6187e-03  2.5807e-04  8.7169e-05  0:00:34  465
  3955  1.6707e-03  3.3841e-04  1.2407e-04  1.6351e-03  2.5861e-04  8.6991e-05  0:00:27  464
  3956  1.6867e-03  3.3527e-04  1.2443e-04  1.6513e-03  2.5914e-04  8.6876e-05  0:00:22  463
  3957  1.7028e-03  3.3005e-04  1.2413e-04  1.6675e-03  2.5969e-04  8.6790e-05  0:00:17  462
  3958  1.7192e-03  3.2730e-04  1.2470e-04  1.6840e-03  2.6020e-04  8.6708e-05  0:00:14  461

  iter  continuity  x-velocity  y-velocity      energy           k       omega     time/iter
  3959  1.7355e-03  3.2473e-04  1.2459e-04  1.7005e-03  2.6065e-04  8.6590e-05  0:01:43  460
  3960  1.7519e-03  3.2667e-04  1.2511e-04  1.7170e-03  2.6106e-04  8.6456e-05  0:01:22  459
  3961  1.7683e-03  3.3054e-04  1.2522e-04  1.7335e-03  2.6140e-04  8.6293e-05  0:01:06  458
  3962  1.7842e-03  3.2831e-04  1.2545e-04  1.7496e-03  2.6165e-04  8.6106e-05  0:00:52  457
  3963  1.7997e-03  3.2543e-04  1.2550e-04  1.7652e-03  2.6181e-04  8.5904e-05  0:00:42  456
  3964  1.8150e-03  3.2632e-04  1.2452e-04  1.7807e-03  2.6187e-04  8.5676e-05  0:00:33  455
  3965  1.8300e-03  3.2632e-04  1.2357e-04  1.7959e-03  2.6187e-04  8.5412e-05  0:00:27  454
  3966  1.8449e-03  3.3166e-04  1.2247e-04  1.8108e-03  2.6184e-04  8.5166e-05  0:00:21  453
  3967  1.8591e-03  3.3773e-04  1.2199e-04  1.8253e-03  2.6179e-04  8.4909e-05  0:00:17  452
  3968  1.8727e-03  3.3389e-04  1.2189e-04  1.8390e-03  2.6174e-04  8.4647e-05  0:00:14  451
  3969  1.8857e-03  3.3582e-04  1.2126e-04  1.8521e-03  2.6171e-04  8.4343e-05  0:01:41  450

  iter  continuity  x-velocity  y-velocity      energy           k       omega     time/iter
  3970  1.8983e-03  3.3942e-04  1.2034e-04  1.8649e-03  2.6160e-04  8.3984e-05  0:01:20  449
  3971  1.9102e-03  3.3700e-04  1.1919e-04  1.8769e-03  2.6140e-04  8.3581e-05  0:01:04  448
  3972  1.9219e-03  3.4505e-04  1.1856e-04  1.8888e-03  2.6108e-04  8.3162e-05  0:00:51  447
  3973  1.9330e-03  3.4747e-04  1.1772e-04  1.9001e-03  2.6067e-04  8.2714e-05  0:00:41  446
  3974  1.9438e-03  3.5416e-04  1.1652e-04  1.9111e-03  2.6016e-04  8.2233e-05  0:00:33  445
  3975  1.9543e-03  3.6378e-04  1.1556e-04  1.9217e-03  2.5955e-04  8.1763e-05  0:00:26  444
  3976  1.9637e-03  3.6871e-04  1.1451e-04  1.9312e-03  2.5886e-04  8.1302e-05  0:00:21  443
  3977  1.9721e-03  3.5960e-04  1.1342e-04  1.9398e-03  2.5809e-04  8.0880e-05  0:01:45  442
  3978  1.9797e-03  3.4299e-04  1.1319e-04  1.9475e-03  2.5725e-04  8.0532e-05  0:01:24  441
  3979  1.9871e-03  3.2750e-04  1.1300e-04  1.9550e-03  2.5637e-04  8.0225e-05  0:01:07  440
  3980  1.9945e-03  3.1938e-04  1.1289e-04  1.9625e-03  2.5545e-04  7.9988e-05  0:00:53  439

  iter  continuity  x-velocity  y-velocity      energy           k       omega     time/iter
  3981  2.0020e-03  3.1736e-04  1.1288e-04  1.9700e-03  2.5446e-04  7.9821e-05  0:00:43  438
  3982  2.0092e-03  3.1787e-04  1.1300e-04  1.9771e-03  2.5345e-04  7.9721e-05  0:00:34  437
  3983  2.0160e-03  3.2136e-04  1.1316e-04  1.9840e-03  2.5243e-04  7.9663e-05  0:00:27  436
  3984  2.0226e-03  3.2406e-04  1.1281e-04  1.9906e-03  2.5140e-04  7.9637e-05  0:00:22  435
  3985  2.0289e-03  3.2597e-04  1.1219e-04  1.9969e-03  2.5038e-04  7.9616e-05  0:00:17  434
  3986  2.0346e-03  3.2637e-04  1.1256e-04  2.0026e-03  2.4936e-04  7.9604e-05  0:00:14  433
  3987  2.0399e-03  3.2859e-04  1.1292e-04  2.0079e-03  2.4830e-04  7.9575e-05  0:01:37  432
  3988  2.0445e-03  3.2892e-04  1.1299e-04  2.0125e-03  2.4719e-04  7.9505e-05  0:01:18  431
  3989  2.0485e-03  3.2751e-04  1.1255e-04  2.0165e-03  2.4604e-04  7.9384e-05  0:01:02  430
  3990  2.0518e-03  3.2433e-04  1.1202e-04  2.0199e-03  2.4484e-04  7.9225e-05  0:00:50  429
  3991  2.0545e-03  3.1942e-04  1.1154e-04  2.0226e-03  2.4356e-04  7.9025e-05  0:00:40  428

  iter  continuity  x-velocity  y-velocity      energy           k       omega     time/iter
  3992  2.0568e-03  3.1734e-04  1.1093e-04  2.0250e-03  2.4218e-04  7.8778e-05  0:00:32  427
  3993  2.0586e-03  3.1914e-04  1.0988e-04  2.0269e-03  2.4076e-04  7.8501e-05  0:00:25  426
  3994  2.0600e-03  3.1998e-04  1.0861e-04  2.0283e-03  2.3927e-04  7.8179e-05  0:00:20  425
  3995  2.0608e-03  3.2502e-04  1.0777e-04  2.0292e-03  2.3772e-04  7.7839e-05  0:00:16  424
  3996  2.0608e-03  3.2269e-04  1.0691e-04  2.0292e-03  2.3610e-04  7.7475e-05  0:00:13  423
  3997  2.0601e-03  3.2188e-04  1.0561e-04  2.0286e-03  2.3445e-04  7.7092e-05  0:01:35  422
  3998  2.0592e-03  3.1870e-04  1.0461e-04  2.0277e-03  2.3273e-04  7.6725e-05  0:01:16  421
  3999  2.0587e-03  3.3387e-04  1.0343e-04  2.0273e-03  2.3097e-04  7.6379e-05  0:01:00  420
  4000  2.0577e-03  3.5528e-04  1.0242e-04  2.0264e-03  2.2917e-04  7.6087e-05  0:00:48  419
  4001  2.0552e-03  3.5232e-04  1.0183e-04  2.0240e-03  2.2735e-04  7.5826e-05  0:00:38  418
  4002  2.0517e-03  3.3020e-04  1.0131e-04  2.0205e-03  2.2550e-04  7.5596e-05  0:00:31  417

  iter  continuity  x-velocity  y-velocity      energy           k       omega     time/iter
  4003  2.0478e-03  3.0641e-04  1.0091e-04  2.0168e-03  2.2363e-04  7.5389e-05  0:00:24  416
  4004  2.0442e-03  2.9452e-04  1.0056e-04  2.0132e-03  2.2174e-04  7.5203e-05  0:00:20  415
  4005  2.0403e-03  2.9200e-04  1.0046e-04  2.0095e-03  2.1981e-04  7.5016e-05  0:00:16  414
  4006  2.0361e-03  2.8987e-04  1.0011e-04  2.0054e-03  2.1785e-04  7.4851e-05  0:00:12  413
  4007  2.0314e-03  2.8891e-04  9.9524e-05  2.0008e-03  2.1584e-04  7.4685e-05  0:01:32  412
  4008  2.0264e-03  2.8900e-04  9.9088e-05  1.9959e-03  2.1379e-04  7.4509e-05  0:01:14  411
  4009  2.0209e-03  2.9007e-04  9.8903e-05  1.9905e-03  2.1171e-04  7.4353e-05  0:00:59  410
  4010  2.0150e-03  2.9454e-04  9.8965e-05  1.9847e-03  2.0963e-04  7.4198e-05  0:00:47  409
  4011  2.0088e-03  3.0139e-04  9.9019e-05  1.9786e-03  2.0754e-04  7.4058e-05  0:00:37  408
  4012  2.0022e-03  3.0127e-04  9.9600e-05  1.9721e-03  2.0542e-04  7.3939e-05  0:00:30  407
  4013  1.9949e-03  2.9146e-04  9.9694e-05  1.9649e-03  2.0327e-04  7.3833e-05  0:00:24  406

  iter  continuity  x-velocity  y-velocity      energy           k       omega     time/iter
  4014  1.9873e-03  2.8373e-04  1.0056e-04  1.9573e-03  2.0111e-04  7.3716e-05  0:00:19  405
  4015  1.9794e-03  2.8473e-04  1.0260e-04  1.9495e-03  1.9893e-04  7.3622e-05  0:00:15  404
  4016  1.9715e-03  2.9215e-04  1.0355e-04  1.9416e-03  1.9671e-04  7.3525e-05  0:01:33  403
  4017  1.9637e-03  3.0941e-04  1.0293e-04  1.9340e-03  1.9446e-04  7.3426e-05  0:01:14  402
  4018  1.9555e-03  3.2735e-04  1.0252e-04  1.9258e-03  1.9221e-04  7.3360e-05  0:00:59  401
  4019  1.9464e-03  3.2942e-04  1.0305e-04  1.9168e-03  1.8996e-04  7.3312e-05  0:00:47  400
  4020  1.9363e-03  3.1516e-04  1.0354e-04  1.9068e-03  1.8770e-04  7.3268e-05  0:00:38  399
  4021  1.9258e-03  2.9646e-04  1.0312e-04  1.8963e-03  1.8542e-04  7.3214e-05  0:00:30  398
  4022  1.9153e-03  2.8849e-04  1.0235e-04  1.8859e-03  1.8312e-04  7.3161e-05  0:00:24  397
  4023  1.9046e-03  2.8533e-04  1.0170e-04  1.8753e-03  1.8080e-04  7.3116e-05  0:00:19  396
  4024  1.8936e-03  2.8346e-04  1.0067e-04  1.8644e-03  1.7848e-04  7.3071e-05  0:00:15  395

  iter  continuity  x-velocity  y-velocity      energy           k       omega     time/iter
  4025  1.8822e-03  2.8423e-04  9.9877e-05  1.8530e-03  1.7615e-04  7.3006e-05  0:00:12  394
  4026  1.8702e-03  2.8196e-04  9.8829e-05  1.8411e-03  1.7380e-04  7.2917e-05  0:00:10  393
  4027  1.8576e-03  2.7528e-04  9.7173e-05  1.8286e-03  1.7145e-04  7.2807e-05  0:01:26  392
  4028  1.8445e-03  2.7157e-04  9.6042e-05  1.8156e-03  1.6911e-04  7.2696e-05  0:01:09  391
  4029  1.8311e-03  2.6895e-04  9.5312e-05  1.8024e-03  1.6678e-04  7.2559e-05  0:00:55  390
  4030  1.8173e-03  2.6666e-04  9.4871e-05  1.7887e-03  1.6448e-04  7.2443e-05  0:00:44  389
  4031  1.8032e-03  2.7003e-04  9.4629e-05  1.7747e-03  1.6225e-04  7.2318e-05  0:00:35  388
  4032  1.7887e-03  2.6959e-04  9.5074e-05  1.7603e-03  1.6008e-04  7.2198e-05  0:00:28  387
  4033  1.7741e-03  2.6967e-04  9.5733e-05  1.7458e-03  1.5795e-04  7.2075e-05  0:00:22  386
  4034  1.7594e-03  2.7584e-04  9.7395e-05  1.7313e-03  1.5587e-04  7.1984e-05  0:00:18  385
  4035  1.7445e-03  2.8174e-04  9.9399e-05  1.7166e-03  1.5383e-04  7.1919e-05  0:00:14  384

  iter  continuity  x-velocity  y-velocity      energy           k       omega     time/iter
  4036  1.7296e-03  2.8726e-04  1.0153e-04  1.7018e-03  1.5186e-04  7.1880e-05  0:00:11  383
  4037  1.7142e-03  2.8382e-04  1.0312e-04  1.6864e-03  1.4996e-04  7.1883e-05  0:01:25  382
  4038  1.6986e-03  2.8030e-04  1.0404e-04  1.6710e-03  1.4814e-04  7.1888e-05  0:01:08  381
  4039  1.6830e-03  2.7657e-04  1.0451e-04  1.6555e-03  1.4635e-04  7.1864e-05  0:00:54  380
  4040  1.6674e-03  2.7374e-04  1.0497e-04  1.6399e-03  1.4461e-04  7.1834e-05  0:00:43  379
  4041  1.6518e-03  2.7285e-04  1.0589e-04  1.6245e-03  1.4294e-04  7.1803e-05  0:00:35  378
  4042  1.6361e-03  2.6991e-04  1.0706e-04  1.6089e-03  1.4136e-04  7.1770e-05  0:00:28  377
  4043  1.6201e-03  2.6284e-04  1.0658e-04  1.5930e-03  1.3986e-04  7.1707e-05  0:00:22  376
  4044  1.6043e-03  2.6116e-04  1.0549e-04  1.5772e-03  1.3844e-04  7.1614e-05  0:00:18  375
  4045  1.5889e-03  2.6850e-04  1.0440e-04  1.5619e-03  1.3707e-04  7.1519e-05  0:00:14  374
  4046  1.5742e-03  2.8395e-04  1.0335e-04  1.5473e-03  1.3576e-04  7.1412e-05  0:01:26  373

  iter  continuity  x-velocity  y-velocity      energy           k       omega     time/iter
  4047  1.5594e-03  2.9304e-04  1.0247e-04  1.5325e-03  1.3456e-04  7.1314e-05  0:01:08  372
  4048  1.5441e-03  2.9514e-04  1.0306e-04  1.5172e-03  1.3348e-04  7.1250e-05  0:00:55  371
  4049  1.5290e-03  3.0126e-04  1.0344e-04  1.5022e-03  1.3250e-04  7.1215e-05  0:00:44  370
  4050  1.5137e-03  3.0236e-04  1.0323e-04  1.4869e-03  1.3163e-04  7.1193e-05  0:00:35  369
  4051  1.4978e-03  2.9358e-04  1.0401e-04  1.4711e-03  1.3085e-04  7.1185e-05  0:00:28  368
  4052  1.4821e-03  2.8135e-04  1.0510e-04  1.4553e-03  1.3018e-04  7.1158e-05  0:00:22  367
  4053  1.4662e-03  2.7022e-04  1.0599e-04  1.4395e-03  1.2954e-04  7.1076e-05  0:00:18  366
  4054  1.4506e-03  2.6552e-04  1.0635e-04  1.4240e-03  1.2894e-04  7.0961e-05  0:00:14  365
  4055  1.4351e-03  2.6672e-04  1.0606e-04  1.4086e-03  1.2842e-04  7.0825e-05  0:00:11  364
  4056  1.4193e-03  2.6155e-04  1.0483e-04  1.3928e-03  1.2796e-04  7.0679e-05  0:01:22  363
  4057  1.4034e-03  2.5846e-04  1.0306e-04  1.3771e-03  1.2754e-04  7.0533e-05  0:01:05  362

  iter  continuity  x-velocity  y-velocity      energy           k       omega     time/iter
  4058  1.3874e-03  2.5230e-04  1.0086e-04  1.3612e-03  1.2713e-04  7.0362e-05  0:00:52  361
  4059  1.3711e-03  2.4522e-04  9.8956e-05  1.3451e-03  1.2677e-04  7.0177e-05  0:00:41  360
  4060  1.3551e-03  2.4099e-04  9.7891e-05  1.3292e-03  1.2645e-04  6.9962e-05  0:00:33  359
  4061  1.3394e-03  2.4191e-04  9.7166e-05  1.3137e-03  1.2620e-04  6.9721e-05  0:00:26  358
  4062  1.3237e-03  2.4360e-04  9.7034e-05  1.2981e-03  1.2602e-04  6.9480e-05  0:00:21  357
  4063  1.3082e-03  2.4575e-04  9.7154e-05  1.2827e-03  1.2594e-04  6.9263e-05  0:00:17  356
  4064  1.2925e-03  2.4491e-04  9.7814e-05  1.2672e-03  1.2595e-04  6.9085e-05  0:00:13  355
  4065  1.2770e-03  2.4554e-04  9.7133e-05  1.2519e-03  1.2602e-04  6.8911e-05  0:00:11  354
  4066  1.2617e-03  2.4728e-04  9.6488e-05  1.2366e-03  1.2615e-04  6.8738e-05  0:00:09  353
  4067  1.2466e-03  2.4571e-04  9.5297e-05  1.2215e-03  1.2635e-04  6.8561e-05  0:01:17  352
  4068  1.2316e-03  2.4628e-04  9.4021e-05  1.2065e-03  1.2660e-04  6.8392e-05  0:01:02  351

  iter  continuity  x-velocity  y-velocity      energy           k       omega     time/iter
  4069  1.2168e-03  2.4593e-04  9.3040e-05  1.1918e-03  1.2687e-04  6.8219e-05  0:00:49  350
  4070  1.2021e-03  2.4107e-04  9.2860e-05  1.1770e-03  1.2716e-04  6.8032e-05  0:00:39  349
  4071  1.1877e-03  2.3472e-04  9.2769e-05  1.1626e-03  1.2748e-04  6.7862e-05  0:00:31  348
  4072  1.1738e-03  2.3078e-04  9.1731e-05  1.1486e-03  1.2786e-04  6.7713e-05  0:00:25  347
  4073  1.1603e-03  2.3223e-04  8.9656e-05  1.1351e-03  1.2826e-04  6.7565e-05  0:00:20  346
  4074  1.1470e-03  2.3169e-04  8.7597e-05  1.1218e-03  1.2869e-04  6.7421e-05  0:00:16  345
  4075  1.1342e-03  2.3141e-04  8.6179e-05  1.1088e-03  1.2917e-04  6.7281e-05  0:00:13  344
  4076  1.1211e-03  2.2615e-04  8.5954e-05  1.0958e-03  1.2970e-04  6.7141e-05  0:00:10  343
  4077  1.1085e-03  2.2479e-04  8.5741e-05  1.0832e-03  1.3026e-04  6.7007e-05  0:01:16  342
  4078  1.0962e-03  2.2538e-04  8.5479e-05  1.0710e-03  1.3084e-04  6.6819e-05  0:01:01  341
  4079  1.0843e-03  2.2981e-04  8.5313e-05  1.0592e-03  1.3142e-04  6.6581e-05  0:00:49  340

  iter  continuity  x-velocity  y-velocity      energy           k       omega     time/iter
  4080  1.0729e-03  2.3786e-04  8.5674e-05  1.0478e-03  1.3202e-04  6.6337e-05  0:00:39  339
  4081  1.0617e-03  2.4672e-04  8.6387e-05  1.0367e-03  1.3262e-04  6.6072e-05  0:00:31  338
  4082  1.0506e-03  2.4889e-04  8.6857e-05  1.0257e-03  1.3322e-04  6.5787e-05  0:00:25  337
  4083  1.0392e-03  2.4098e-04  8.6738e-05  1.0146e-03  1.3381e-04  6.5495e-05  0:00:20  336
  4084  1.0285e-03  2.3541e-04  8.6469e-05  1.0039e-03  1.3439e-04  6.5189e-05  0:00:16  335
  4085  1.0189e-03  2.4454e-04  8.6480e-05  9.9443e-04  1.3493e-04  6.4886e-05  0:00:13  334
  4086  1.0092e-03  2.4734e-04  8.7223e-05  9.8484e-04  1.3546e-04  6.4590e-05  0:00:10  333
  4087  9.9952e-04  2.4969e-04  8.8549e-05  9.7525e-04  1.3594e-04  6.4319e-05  0:01:14  332
! 4087 solution is converged

> /plot/plot yes loading.txt yes no no absolute-pressure yes 1 0 upper-blade ()

> exit 
Posting ANSYS Product Improvement Program performance data 
Done.
yes
