
              Welcome to ANSYS Fluent 2021 R2

              Copyright 1987-2021 ANSYS, Inc. All Rights Reserved.
              Unauthorized use, distribution or duplication is prohibited.
              This product is subject to U.S. laws governing export and re-export.
              For full Legal Notice, see documentation.

Build Time: May 28 2021 13:54:56 EDT  Build Id: 10201  
 

     --------------------------------------------------------------
     This is an academic version of ANSYS FLUENT. Usage of this product
     license is limited to the terms and conditions specified in your ANSYS
     license form, additional terms section.
     --------------------------------------------------------------
Host spawning Node 0 on machine "WL-CH-009" (win64).

-------------------------------------------------------------------------------
ID    Hostname   Core   O.S.         PID    Vendor                       
-------------------------------------------------------------------------------
n31   WL-CH-009  32/36  Windows-x64  40408  Intel(R) Xeon(R) W-2295      
n30   WL-CH-009  31/36  Windows-x64  27940  Intel(R) Xeon(R) W-2295      
n29   WL-CH-009  30/36  Windows-x64  39580  Intel(R) Xeon(R) W-2295      
n28   WL-CH-009  29/36  Windows-x64  45680  Intel(R) Xeon(R) W-2295      
n27   WL-CH-009  28/36  Windows-x64  34576  Intel(R) Xeon(R) W-2295      
n26   WL-CH-009  27/36  Windows-x64  24024  Intel(R) Xeon(R) W-2295      
n25   WL-CH-009  26/36  Windows-x64  41908  Intel(R) Xeon(R) W-2295      
n24   WL-CH-009  25/36  Windows-x64  41148  Intel(R) Xeon(R) W-2295      
n23   WL-CH-009  24/36  Windows-x64  16888  Intel(R) Xeon(R) W-2295      
n22   WL-CH-009  23/36  Windows-x64  31832  Intel(R) Xeon(R) W-2295      
n21   WL-CH-009  22/36  Windows-x64  38192  Intel(R) Xeon(R) W-2295      
n20   WL-CH-009  21/36  Windows-x64  23276  Intel(R) Xeon(R) W-2295      
n19   WL-CH-009  20/36  Windows-x64  35080  Intel(R) Xeon(R) W-2295      
n18   WL-CH-009  19/36  Windows-x64  43796  Intel(R) Xeon(R) W-2295      
n17   WL-CH-009  18/36  Windows-x64  20828  Intel(R) Xeon(R) W-2295      
n16   WL-CH-009  17/36  Windows-x64  17696  Intel(R) Xeon(R) W-2295      
n15   WL-CH-009  16/36  Windows-x64  13376  Intel(R) Xeon(R) W-2295      
n14   WL-CH-009  15/36  Windows-x64  25848  Intel(R) Xeon(R) W-2295      
n13   WL-CH-009  14/36  Windows-x64  37008  Intel(R) Xeon(R) W-2295      
n12   WL-CH-009  13/36  Windows-x64  17052  Intel(R) Xeon(R) W-2295      
-------------------------------------------------------------------------------
ID    Hostname   Core   O.S.         PID    Vendor                       
-------------------------------------------------------------------------------
n11   WL-CH-009  12/36  Windows-x64  34400  Intel(R) Xeon(R) W-2295      
n10   WL-CH-009  11/36  Windows-x64  43744  Intel(R) Xeon(R) W-2295      
n9    WL-CH-009  10/36  Windows-x64  9840   Intel(R) Xeon(R) W-2295      
n8    WL-CH-009  9/36   Windows-x64  34688  Intel(R) Xeon(R) W-2295      
n7    WL-CH-009  8/36   Windows-x64  43272  Intel(R) Xeon(R) W-2295      
n6    WL-CH-009  7/36   Windows-x64  37880  Intel(R) Xeon(R) W-2295      
n5    WL-CH-009  6/36   Windows-x64  6920   Intel(R) Xeon(R) W-2295      
n4    WL-CH-009  5/36   Windows-x64  15896  Intel(R) Xeon(R) W-2295      
n3    WL-CH-009  4/36   Windows-x64  35656  Intel(R) Xeon(R) W-2295      
n2    WL-CH-009  3/36   Windows-x64  8484   Intel(R) Xeon(R) W-2295      
n1    WL-CH-009  2/36   Windows-x64  43052  Intel(R) Xeon(R) W-2295      
n0*   WL-CH-009  1/36   Windows-x64  35284  Intel(R) Xeon(R) W-2295      
host  WL-CH-009         Windows-x64  16640  Intel(R) Xeon(R) W-2295      

MPI Option Selected: intel
Selected system interconnect: default
-------------------------------------------------------------------------------

Cleanup script file is E:\\MATLAB\\RANS_optimisation\\cleanup-fluent-WL-CH-009-16640.bat

Posting ANSYS Product Improvement Program startup data
Done.

Reading journal file E:\MATLAB\RANS_optimisation\run9\fluent_input.jou...

> /sync-chdir E:\MATLAB\RANS_optimisation\run9

> /file/read-case "grid.msh"
Reading "grid.msh"...

Buffering for file scan...

  112722 quadrilateral cells, zone  9.
  224998 2D interior faces, zone  2.
Warning: Reversing 238 faces, zone  2.
     237 2D pressure-inlet faces, zone  3.
Warning: Reversing 237 faces, zone  3.
     477 2D pressure-outlet faces, zone  4.
Warning: Reversing 477 faces, zone  4.
     477 2D pressure-outlet faces, zone  5.
     207 2D pressure-outlet faces, zone  6.
     254 2D wall faces, zone  7.
Warning: Reversing 15 faces, zone  7.
     252 2D wall faces, zone  8.
Warning: Reversing 223 faces, zone  8.
  113674 nodes.

Building...
     mesh
	auto partitioning mesh by Metis (fast),
	distributing mesh
		parts................................,
		faces................................,
		nodes................................,
		cells................................,
        bandwidth reduction using Reverse Cuthill-McKee: 2716/83 = 32.7229
     materials,
     interface,
     domains,
     zones,
	fluid-9
	wall-8
	wall-7
	pressure-outlet-6
	pressure-outlet-5
	pressure-outlet-4
	pressure-inlet-3
	interior-2
     parallel,
Done.

Preparing mesh for display...
Done.
 

> /define/boundary-conditions/modify-zones/zone-name 3 inlet 

> /define/boundary-conditions/modify-zones/zone-name 4 upper 

> /define/boundary-conditions/modify-zones/zone-name 5 lower 

> /define/boundary-conditions/modify-zones/zone-name 6 outlet

> /define/boundary-conditions/modify-zones/zone-name 7 upper-blade

> /define/boundary-conditions/modify-zones/zone-name 8 lower-blade

> /define/materials/change-create air air air is a fluid
yes 
Density
ideal-gas no data required.

yes 
Cp (Specific Heat)
constant 1005 
yes 
Thermal Conductivity
expression "DynamicViscosity*1005 [J/(kg K)]/0.72"
 yes 
Viscosity
sutherland three-coefficient-method 5.83247e-04 273 110.4 
no no no

Note: Enabling energy equation as required by material density method.

> /define/operating-conditions/operating-pressure 0

> /define/models/viscous/kw-sst? yes

> /define/boundary-conditions/zone-type inlet pressure-inlet 

> /define/boundary-conditions/pressure-inlet (inlet)
inlet yes no 74575.2 no 46984 no 300 no yes no no yes 0.5 1

> /define/boundary-conditions/zone-type outlet pressure-outlet 

> /define/boundary-conditions/bc-settings/pressure-outlet 0. 65 

> /define/boundary-conditions/pressure-outlet (outlet upper lower)
outlet yes no 46984 no 300 no yes no no yes 0.5 1 yes no no

> /define/boundary-conditions/copy-bc outlet (upper lower)Copy outlet boundary conditions to lower
Copy outlet boundary conditions to upper


> /define/boundary-conditions/wall (upper-blade lower-blade)
upper-blade 0 no 0 no no no 0 no no no no 0 no 0.5 no 1

> /define/boundary-conditions/copy-bc upper-blade (lower-blade)Copy upper-blade boundary conditions to lower-blade


> /define/models/solver/densit-based-implicit yes

> /file/read-data E:\MATLAB\RANS_optimisation\clean.dat

Reading "E:\MATLAB\RANS_optimisation\clean.dat"...



Parallel variables...
Done.

> ;/solve/initialize/initialize-flow
;/solve/initialize/compute-defaults/pressure-inlet inlet
;/solve/initialize/initialize-flow yes
;/solve/initialize/hyb-initialization
/solve/iterate 2000

  iter  continuity  x-velocity  y-velocity      energy           k       omega     time/iter
  2419  9.9521e-04  3.5719e-04  6.8654e-05  9.7828e-04  1.7105e-04  4.2984e-05  0:00:00 2000
  2420  9.0251e-02  6.0104e-02  5.4603e-02  9.0250e-02  4.0947e-03  1.1783e-02  0:00:00 1999
  2421  7.5965e-02  4.5707e-02  5.2450e-02  7.6347e-02  3.9159e-03  9.8617e-03  0:00:00 1998
  2422  5.9056e-02  3.2302e-02  5.0272e-02  5.9285e-02  3.7416e-03  7.8360e-03  0:00:00 1997
  2423  4.5207e-02  2.4410e-02  4.3781e-02  4.4959e-02  3.5650e-03  6.3711e-03  0:00:00 1996
  2424  3.5712e-02  2.0335e-02  3.5744e-02  3.5179e-02  3.3852e-03  5.9148e-03  0:00:00 1995
  2425  2.9632e-02  1.8090e-02  2.8186e-02  2.9113e-02  3.2043e-03  5.4789e-03  0:00:00 1994
  2426  2.5843e-02  1.6535e-02  2.2055e-02  2.5487e-02  3.0255e-03  4.9693e-03  0:33:13 1993
  2427  2.3529e-02  1.5215e-02  1.7545e-02  2.3346e-02  2.8488e-03  4.4687e-03  0:26:34 1992
  2428  2.2038e-02  1.3965e-02  1.4476e-02  2.1983e-02  2.6824e-03  4.0098e-03  0:21:14 1991
  2429  2.0880e-02  1.2718e-02  1.2525e-02  2.0902e-02  2.5284e-03  3.5267e-03  0:16:59 1990

  iter  continuity  x-velocity  y-velocity      energy           k       omega     time/iter
  2430  1.9788e-02  1.1481e-02  1.1319e-02  1.9845e-02  2.3865e-03  3.0847e-03  0:13:35 1989
  2431  1.8663e-02  1.0281e-02  1.0540e-02  1.8725e-02  2.2598e-03  2.7480e-03  0:10:51 1988
  2432  1.7509e-02  9.1480e-03  9.9640e-03  1.7555e-02  2.1473e-03  2.5427e-03  0:08:41 1987
  2433  1.6379e-02  8.1163e-03  9.4580e-03  1.6392e-02  2.0488e-03  2.3915e-03  0:06:56 1986
  2434  1.5315e-02  7.2168e-03  8.9610e-03  1.5289e-02  1.9625e-03  2.2721e-03  0:12:10 1985
  2435  1.4326e-02  6.4926e-03  8.4611e-03  1.4254e-02  1.8861e-03  2.1883e-03  0:09:44 1984
  2436  1.3414e-02  5.9804e-03  7.9567e-03  1.3292e-02  1.8184e-03  2.1577e-03  0:07:47 1983
  2437  1.2595e-02  5.6856e-03  7.4564e-03  1.2426e-02  1.7570e-03  2.1394e-03  0:06:13 1982
  2438  1.1878e-02  5.5900e-03  6.9735e-03  1.1665e-02  1.7017e-03  2.1206e-03  0:04:58 1981
  2439  1.1263e-02  5.6377e-03  6.5246e-03  1.1010e-02  1.6522e-03  2.1168e-03  0:03:59 1980
  2440  1.0749e-02  5.7681e-03  6.1277e-03  1.0462e-02  1.6077e-03  2.1099e-03  0:03:11 1979

  iter  continuity  x-velocity  y-velocity      energy           k       omega     time/iter
  2441  1.0355e-02  5.9222e-03  5.7924e-03  1.0038e-02  1.5673e-03  2.0993e-03  0:02:33 1978
  2442  1.0107e-02  6.0651e-03  5.5224e-03  9.7645e-03  1.5311e-03  2.0809e-03  0:02:02 1977
  2443  1.0037e-02  6.1716e-03  5.3180e-03  9.6740e-03  1.4980e-03  2.0611e-03  0:01:38 1976
  2444  1.0188e-02  6.2349e-03  5.1685e-03  9.8104e-03  1.4679e-03  2.0417e-03  0:07:53 1975
  2445  1.0584e-02  6.2532e-03  5.0539e-03  1.0197e-02  1.4410e-03  2.0266e-03  0:06:18 1974
  2446  1.1224e-02  6.2356e-03  4.9709e-03  1.0833e-02  1.4173e-03  2.0038e-03  0:05:02 1973
  2447  1.2079e-02  6.1931e-03  4.9159e-03  1.1686e-02  1.3960e-03  1.9764e-03  0:04:02 1972
  2448  1.3101e-02  6.1383e-03  4.8619e-03  1.2709e-02  1.3785e-03  1.9446e-03  0:03:13 1971
  2449  1.4251e-02  6.0811e-03  4.7939e-03  1.3861e-02  1.3629e-03  1.9127e-03  0:02:35 1970
  2450  1.5483e-02  6.0195e-03  4.7051e-03  1.5096e-02  1.3502e-03  1.8837e-03  0:02:04 1969
  2451  1.6735e-02  5.9729e-03  4.5927e-03  1.6352e-02  1.3409e-03  1.8584e-03  0:01:39 1968

  iter  continuity  x-velocity  y-velocity      energy           k       omega     time/iter
  2452  1.7945e-02  5.9442e-03  4.4641e-03  1.7566e-02  1.3328e-03  1.8377e-03  0:01:19 1967
  2453  1.9059e-02  5.9306e-03  4.3274e-03  1.8687e-02  1.3263e-03  1.8176e-03  0:01:03 1966
  2454  2.0042e-02  5.9406e-03  4.1667e-03  1.9679e-02  1.3207e-03  1.8041e-03  0:07:24 1965
  2455  2.0916e-02  5.9686e-03  3.9879e-03  2.0564e-02  1.3156e-03  1.7960e-03  0:05:55 1964
  2456  2.1661e-02  6.0088e-03  3.8033e-03  2.1321e-02  1.3112e-03  1.7937e-03  0:04:44 1963
  2457  2.2270e-02  6.0513e-03  3.6303e-03  2.1944e-02  1.3074e-03  1.7941e-03  0:03:47 1962
  2458  2.2714e-02  6.0851e-03  3.4727e-03  2.2402e-02  1.3045e-03  1.8006e-03  0:03:01 1961
  2459  2.2964e-02  6.1046e-03  3.3201e-03  2.2668e-02  1.3025e-03  1.8044e-03  0:02:25 1960
  2460  2.3023e-02  6.1145e-03  3.1878e-03  2.2743e-02  1.3012e-03  1.8056e-03  0:01:56 1959
  2461  2.2917e-02  6.1133e-03  3.0886e-03  2.2651e-02  1.3011e-03  1.8078e-03  0:01:33 1958
  2462  2.2677e-02  6.0987e-03  3.0186e-03  2.2425e-02  1.3013e-03  1.8091e-03  0:01:14 1957

  iter  continuity  x-velocity  y-velocity      energy           k       omega     time/iter
  2463  2.2336e-02  6.0671e-03  2.9852e-03  2.2097e-02  1.3034e-03  1.8144e-03  0:00:59 1956
  2464  2.1910e-02  6.0254e-03  2.9815e-03  2.1685e-02  1.3057e-03  1.8232e-03  0:07:18 1955
  2465  2.1406e-02  5.9700e-03  2.9697e-03  2.1194e-02  1.3093e-03  1.8305e-03  0:05:51 1954
  2466  2.0821e-02  5.8966e-03  2.9714e-03  2.0620e-02  1.3132e-03  1.8334e-03  0:04:40 1953
  2467  2.0157e-02  5.8068e-03  2.9794e-03  1.9966e-02  1.3181e-03  1.8369e-03  0:03:44 1952
  2468  1.9432e-02  5.7165e-03  3.0022e-03  1.9250e-02  1.3232e-03  1.8413e-03  0:02:59 1951
  2469  1.8656e-02  5.6192e-03  2.9940e-03  1.8480e-02  1.3289e-03  1.8356e-03  0:02:23 1950
  2470  1.7851e-02  5.5142e-03  2.9994e-03  1.7679e-02  1.3353e-03  1.8227e-03  0:01:55 1949
  2471  1.7030e-02  5.3995e-03  3.0037e-03  1.6861e-02  1.3425e-03  1.8063e-03  0:01:32 1948
  2472  1.6201e-02  5.2826e-03  2.9952e-03  1.6033e-02  1.3513e-03  1.7900e-03  0:01:13 1947
  2473  1.5380e-02  5.1646e-03  2.9919e-03  1.5211e-02  1.3606e-03  1.7765e-03  0:00:59 1946

  iter  continuity  x-velocity  y-velocity      energy           k       omega     time/iter
  2474  1.4568e-02  5.0542e-03  2.9852e-03  1.4398e-02  1.3705e-03  1.7640e-03  0:07:16 1945
  2475  1.3772e-02  4.9487e-03  2.9738e-03  1.3598e-02  1.3806e-03  1.7455e-03  0:05:48 1944
  2476  1.3011e-02  4.8422e-03  2.9603e-03  1.2834e-02  1.3916e-03  1.7285e-03  0:04:39 1943
  2477  1.2297e-02  4.7423e-03  2.9456e-03  1.2117e-02  1.4031e-03  1.7157e-03  0:03:43 1942
  2478  1.1652e-02  4.6442e-03  2.9279e-03  1.1469e-02  1.4146e-03  1.7054e-03  0:02:58 1941
  2479  1.1080e-02  4.5468e-03  2.9066e-03  1.0895e-02  1.4264e-03  1.6969e-03  0:02:22 1940
  2480  1.0587e-02  4.4557e-03  2.8783e-03  1.0402e-02  1.4382e-03  1.6821e-03  0:01:54 1939
  2481  1.0161e-02  4.3680e-03  2.8522e-03  9.9780e-03  1.4501e-03  1.6653e-03  0:01:31 1938
  2482  9.8125e-03  4.2882e-03  2.8282e-03  9.6334e-03  1.4617e-03  1.6532e-03  0:01:13 1937
  2483  9.5120e-03  4.2138e-03  2.7997e-03  9.3365e-03  1.4734e-03  1.6465e-03  0:07:25 1936
  2484  9.2760e-03  4.1404e-03  2.7653e-03  9.1057e-03  1.4854e-03  1.6378e-03  0:05:56 1935

  iter  continuity  x-velocity  y-velocity      energy           k       omega     time/iter
  2485  9.1062e-03  4.0697e-03  2.7223e-03  8.9426e-03  1.4980e-03  1.6308e-03  0:04:45 1934
  2486  8.9771e-03  3.9974e-03  2.6798e-03  8.8196e-03  1.5104e-03  1.6197e-03  0:03:48 1933
  2487  8.9095e-03  3.9335e-03  2.6360e-03  8.7598e-03  1.5231e-03  1.6111e-03  0:03:02 1932
  2488  8.8741e-03  3.8694e-03  2.5923e-03  8.7322e-03  1.5349e-03  1.5985e-03  0:02:26 1931
  2489  8.8613e-03  3.8213e-03  2.5455e-03  8.7263e-03  1.5464e-03  1.5885e-03  0:01:56 1930
  2490  8.8780e-03  3.7783e-03  2.4932e-03  8.7497e-03  1.5582e-03  1.5772e-03  0:01:33 1929
  2491  8.9007e-03  3.7312e-03  2.4442e-03  8.7781e-03  1.5691e-03  1.5647e-03  0:01:14 1928
  2492  8.9382e-03  3.6863e-03  2.3893e-03  8.8220e-03  1.5804e-03  1.5530e-03  0:01:00 1927
  2493  8.9875e-03  3.6478e-03  2.3301e-03  8.8779e-03  1.5916e-03  1.5391e-03  0:07:13 1926
  2494  9.0443e-03  3.6255e-03  2.2767e-03  8.9409e-03  1.6023e-03  1.5250e-03  0:05:46 1925
  2495  9.1043e-03  3.5936e-03  2.2125e-03  9.0068e-03  1.6122e-03  1.5118e-03  0:04:37 1924

  iter  continuity  x-velocity  y-velocity      energy           k       omega     time/iter
  2496  9.1659e-03  3.5601e-03  2.1542e-03  9.0737e-03  1.6216e-03  1.4961e-03  0:03:41 1923
  2497  9.2360e-03  3.5308e-03  2.1026e-03  9.1497e-03  1.6315e-03  1.4804e-03  0:02:57 1922
  2498  9.2942e-03  3.5100e-03  2.0466e-03  9.2130e-03  1.6403e-03  1.4658e-03  0:02:21 1921
  2499  9.3527e-03  3.5003e-03  2.0033e-03  9.2764e-03  1.6490e-03  1.4557e-03  0:01:53 1920
  2500  9.3958e-03  3.4775e-03  1.9674e-03  9.3234e-03  1.6580e-03  1.4430e-03  0:01:30 1919
  2501  9.4243e-03  3.4563e-03  1.9246e-03  9.3550e-03  1.6675e-03  1.4291e-03  0:01:12 1918
  2502  9.4408e-03  3.4331e-03  1.8773e-03  9.3749e-03  1.6765e-03  1.4143e-03  0:00:58 1917
  2503  9.4466e-03  3.4141e-03  1.8417e-03  9.3838e-03  1.6843e-03  1.3977e-03  0:07:09 1916
  2504  9.4440e-03  3.3978e-03  1.8088e-03  9.3841e-03  1.6924e-03  1.3807e-03  0:05:43 1915
  2505  9.4298e-03  3.3845e-03  1.7763e-03  9.3729e-03  1.7007e-03  1.3660e-03  0:04:35 1914
  2506  9.4140e-03  3.3756e-03  1.7510e-03  9.3602e-03  1.7087e-03  1.3532e-03  0:03:40 1913

  iter  continuity  x-velocity  y-velocity      energy           k       omega     time/iter
  2507  9.3920e-03  3.3652e-03  1.7362e-03  9.3413e-03  1.7166e-03  1.3421e-03  0:02:56 1912
  2508  9.3624e-03  3.3527e-03  1.7295e-03  9.3146e-03  1.7258e-03  1.3300e-03  0:02:20 1911
  2509  9.3204e-03  3.3411e-03  1.7260e-03  9.2748e-03  1.7353e-03  1.3148e-03  0:01:52 1910
  2510  9.2761e-03  3.3261e-03  1.7260e-03  9.2326e-03  1.7439e-03  1.3001e-03  0:01:30 1909
  2511  9.2354e-03  3.3084e-03  1.7207e-03  9.1942e-03  1.7529e-03  1.2849e-03  0:01:12 1908
  2512  9.1867e-03  3.2938e-03  1.7196e-03  9.1471e-03  1.7620e-03  1.2701e-03  0:07:19 1907
  2513  9.1202e-03  3.2805e-03  1.7224e-03  9.0811e-03  1.7706e-03  1.2567e-03  0:05:51 1906
  2514  9.0602e-03  3.2676e-03  1.7242e-03  9.0215e-03  1.7788e-03  1.2432e-03  0:04:41 1905
  2515  9.0074e-03  3.2551e-03  1.7307e-03  8.9688e-03  1.7876e-03  1.2307e-03  0:03:44 1904
  2516  8.9689e-03  3.2416e-03  1.7403e-03  8.9305e-03  1.7958e-03  1.2188e-03  0:02:59 1903
  2517  8.9399e-03  3.2250e-03  1.7509e-03  8.9014e-03  1.8040e-03  1.2072e-03  0:02:23 1902

  iter  continuity  x-velocity  y-velocity      energy           k       omega     time/iter
  2518  8.9114e-03  3.2072e-03  1.7609e-03  8.8721e-03  1.8124e-03  1.1957e-03  0:01:55 1901
  2519  8.8696e-03  3.1896e-03  1.7748e-03  8.8287e-03  1.8210e-03  1.1867e-03  0:01:32 1900
  2520  8.8244e-03  3.1744e-03  1.7884e-03  8.7815e-03  1.8291e-03  1.1775e-03  0:01:13 1899
  2521  8.7933e-03  3.1557e-03  1.7930e-03  8.7481e-03  1.8368e-03  1.1675e-03  0:07:18 1898
  2522  8.7732e-03  3.1303e-03  1.7960e-03  8.7258e-03  1.8445e-03  1.1583e-03  0:05:50 1897
  2523  8.7574e-03  3.1047e-03  1.7972e-03  8.7075e-03  1.8518e-03  1.1495e-03  0:04:40 1896
  2524  8.7449e-03  3.0761e-03  1.7973e-03  8.6925e-03  1.8583e-03  1.1401e-03  0:03:44 1895
  2525  8.7366e-03  3.0461e-03  1.8006e-03  8.6815e-03  1.8645e-03  1.1304e-03  0:02:59 1894
  2526  8.7322e-03  3.0107e-03  1.7966e-03  8.6741e-03  1.8702e-03  1.1206e-03  0:02:23 1893
  2527  8.7320e-03  2.9733e-03  1.7967e-03  8.6709e-03  1.8748e-03  1.1115e-03  0:01:55 1892
  2528  8.7335e-03  2.9347e-03  1.7949e-03  8.6695e-03  1.8793e-03  1.1018e-03  0:01:32 1891

  iter  continuity  x-velocity  y-velocity      energy           k       omega     time/iter
  2529  8.7354e-03  2.8944e-03  1.7796e-03  8.6684e-03  1.8839e-03  1.0929e-03  0:01:13 1890
  2530  8.7452e-03  2.8542e-03  1.7662e-03  8.6757e-03  1.8883e-03  1.0842e-03  0:00:59 1889
  2531  8.7583e-03  2.8107e-03  1.7544e-03  8.6865e-03  1.8923e-03  1.0769e-03  0:07:04 1888
  2532  8.7709e-03  2.7655e-03  1.7348e-03  8.6972e-03  1.8959e-03  1.0692e-03  0:05:39 1887
  2533  8.7785e-03  2.7200e-03  1.7138e-03  8.7029e-03  1.8999e-03  1.0615e-03  0:04:31 1886
  2534  8.7838e-03  2.6736e-03  1.6920e-03  8.7066e-03  1.9039e-03  1.0536e-03  0:03:37 1885
  2535  8.7867e-03  2.6269e-03  1.6689e-03  8.7082e-03  1.9079e-03  1.0443e-03  0:02:53 1884
  2536  8.7874e-03  2.5792e-03  1.6413e-03  8.7079e-03  1.9117e-03  1.0349e-03  0:02:19 1883
  2537  8.7832e-03  2.5326e-03  1.6121e-03  8.7030e-03  1.9156e-03  1.0263e-03  0:01:51 1882
  2538  8.7694e-03  2.4872e-03  1.5810e-03  8.6891e-03  1.9197e-03  1.0178e-03  0:01:29 1881
  2539  8.7428e-03  2.4422e-03  1.5462e-03  8.6625e-03  1.9240e-03  1.0086e-03  0:01:11 1880

  iter  continuity  x-velocity  y-velocity      energy           k       omega     time/iter
  2540  8.7043e-03  2.4003e-03  1.5137e-03  8.6243e-03  1.9279e-03  9.9906e-04  0:00:57 1879
  2541  8.6517e-03  2.3598e-03  1.4792e-03  8.5721e-03  1.9318e-03  9.9049e-04  0:07:01 1878
  2542  8.5841e-03  2.3216e-03  1.4458e-03  8.5053e-03  1.9361e-03  9.8268e-04  0:05:37 1877
  2543  8.5011e-03  2.2859e-03  1.4121e-03  8.4234e-03  1.9402e-03  9.7443e-04  0:04:29 1876
  2544  8.3962e-03  2.2528e-03  1.3822e-03  8.3196e-03  1.9443e-03  9.6573e-04  0:03:35 1875
  2545  8.2762e-03  2.2219e-03  1.3555e-03  8.2007e-03  1.9493e-03  9.5626e-04  0:02:52 1874
  2546  8.1374e-03  2.1939e-03  1.3319e-03  8.0631e-03  1.9539e-03  9.4560e-04  0:02:18 1873
  2547  7.9802e-03  2.1698e-03  1.3126e-03  7.9069e-03  1.9585e-03  9.3721e-04  0:01:50 1872
  2548  7.8064e-03  2.1485e-03  1.2972e-03  7.7339e-03  1.9633e-03  9.2822e-04  0:01:28 1871
  2549  7.6182e-03  2.1290e-03  1.2854e-03  7.5464e-03  1.9685e-03  9.1991e-04  0:01:10 1870
  2550  7.4193e-03  2.1090e-03  1.2782e-03  7.3479e-03  1.9741e-03  9.1237e-04  0:00:56 1869

  iter  continuity  x-velocity  y-velocity      energy           k       omega     time/iter
  2551  7.2122e-03  2.0914e-03  1.2761e-03  7.1409e-03  1.9790e-03  9.0390e-04  0:06:59 1868
  2552  7.0014e-03  2.0760e-03  1.2787e-03  6.9300e-03  1.9831e-03  8.9477e-04  0:05:35 1867
  2553  6.7948e-03  2.0622e-03  1.2862e-03  6.7230e-03  1.9863e-03  8.8609e-04  0:04:28 1866
  2554  6.5957e-03  2.0495e-03  1.2977e-03  6.5232e-03  1.9890e-03  8.7641e-04  0:03:34 1865
  2555  6.4089e-03  2.0364e-03  1.3122e-03  6.3354e-03  1.9913e-03  8.6720e-04  0:02:51 1864
  2556  6.2469e-03  2.0232e-03  1.3287e-03  6.1723e-03  1.9937e-03  8.5848e-04  0:02:17 1863
  2557  6.1186e-03  2.0105e-03  1.3464e-03  6.0429e-03  1.9951e-03  8.4877e-04  0:01:49 1862
  2558  6.0258e-03  1.9989e-03  1.3649e-03  5.9489e-03  1.9947e-03  8.3836e-04  0:01:27 1861
  2559  5.9880e-03  1.9887e-03  1.3837e-03  5.9103e-03  1.9923e-03  8.2784e-04  0:01:10 1860
  2560  5.9888e-03  1.9777e-03  1.4021e-03  5.9103e-03  1.9889e-03  8.1749e-04  0:00:56 1859
  2561  6.0310e-03  1.9613e-03  1.4197e-03  5.9520e-03  1.9839e-03  8.0738e-04  0:06:56 1858

  iter  continuity  x-velocity  y-velocity      energy           k       omega     time/iter
  2562  6.1229e-03  1.9446e-03  1.4359e-03  6.0436e-03  1.9775e-03  7.9769e-04  0:05:33 1857
  2563  6.2619e-03  1.9285e-03  1.4504e-03  6.1826e-03  1.9693e-03  7.8769e-04  0:04:26 1856
  2564  6.4437e-03  1.9112e-03  1.4629e-03  6.3647e-03  1.9593e-03  7.7883e-04  0:03:33 1855
  2565  6.6638e-03  1.8935e-03  1.4731e-03  6.5853e-03  1.9476e-03  7.7028e-04  0:02:50 1854
  2566  6.9185e-03  1.8751e-03  1.4813e-03  6.8406e-03  1.9341e-03  7.6228e-04  0:02:16 1853
  2567  7.1991e-03  1.8557e-03  1.4876e-03  7.1217e-03  1.9198e-03  7.5486e-04  0:01:49 1852
  2568  7.4883e-03  1.8347e-03  1.4913e-03  7.4113e-03  1.9048e-03  7.4791e-04  0:01:27 1851
  2569  7.7764e-03  1.8114e-03  1.4930e-03  7.6995e-03  1.8893e-03  7.4078e-04  0:01:10 1850
  2570  8.0629e-03  1.7881e-03  1.4922e-03  7.9861e-03  1.8734e-03  7.3272e-04  0:00:56 1849
  2571  8.3392e-03  1.7649e-03  1.4887e-03  8.2623e-03  1.8567e-03  7.2486e-04  0:00:44 1848
  2572  8.6050e-03  1.7421e-03  1.4831e-03  8.5278e-03  1.8402e-03  7.1742e-04  0:06:45 1847

  iter  continuity  x-velocity  y-velocity      energy           k       omega     time/iter
  2573  8.8543e-03  1.7192e-03  1.4754e-03  8.7767e-03  1.8240e-03  7.0989e-04  0:05:24 1846
  2574  9.0863e-03  1.6967e-03  1.4653e-03  9.0083e-03  1.8086e-03  7.0219e-04  0:04:19 1845
  2575  9.3001e-03  1.6736e-03  1.4538e-03  9.2215e-03  1.7938e-03  6.9617e-04  0:03:27 1844
  2576  9.4879e-03  1.6505e-03  1.4398e-03  9.4088e-03  1.7803e-03  6.9019e-04  0:02:46 1843
  2577  9.6427e-03  1.6276e-03  1.4250e-03  9.5630e-03  1.7680e-03  6.8419e-04  0:02:12 1842
  2578  9.7605e-03  1.6046e-03  1.4094e-03  9.6803e-03  1.7560e-03  6.7779e-04  0:01:46 1841
  2579  9.8448e-03  1.5819e-03  1.3928e-03  9.7641e-03  1.7448e-03  6.7163e-04  0:01:25 1840
  2580  9.8984e-03  1.5577e-03  1.3748e-03  9.8175e-03  1.7349e-03  6.6557e-04  0:01:08 1839
  2581  9.9186e-03  1.5326e-03  1.3558e-03  9.8374e-03  1.7261e-03  6.5975e-04  0:00:54 1838
  2582  9.9071e-03  1.5072e-03  1.3352e-03  9.8258e-03  1.7180e-03  6.5398e-04  0:06:51 1837
  2583  9.8652e-03  1.4836e-03  1.3137e-03  9.7842e-03  1.7106e-03  6.4870e-04  0:05:28 1836

  iter  continuity  x-velocity  y-velocity      energy           k       omega     time/iter
  2584  9.7958e-03  1.4612e-03  1.2923e-03  9.7151e-03  1.7036e-03  6.4253e-04  0:04:23 1835
  2585  9.6971e-03  1.4393e-03  1.2707e-03  9.6169e-03  1.6968e-03  6.3610e-04  0:03:30 1834
  2586  9.5684e-03  1.4174e-03  1.2493e-03  9.4889e-03  1.6900e-03  6.2827e-04  0:02:48 1833
  2587  9.4111e-03  1.3972e-03  1.2283e-03  9.3326e-03  1.6832e-03  6.2026e-04  0:02:14 1832
  2588  9.2268e-03  1.3773e-03  1.2071e-03  9.1494e-03  1.6769e-03  6.1414e-04  0:01:47 1831
  2589  9.0182e-03  1.3586e-03  1.1870e-03  8.9422e-03  1.6723e-03  6.0753e-04  0:01:26 1830
  2590  8.7886e-03  1.3411e-03  1.1682e-03  8.7141e-03  1.6681e-03  6.0079e-04  0:01:09 1829
  2591  8.5405e-03  1.3252e-03  1.1506e-03  8.4677e-03  1.6644e-03  5.9451e-04  0:00:55 1828
  2592  8.2766e-03  1.3113e-03  1.1335e-03  8.2057e-03  1.6616e-03  5.8842e-04  0:06:49 1827
  2593  7.9996e-03  1.2968e-03  1.1185e-03  7.9306e-03  1.6595e-03  5.8266e-04  0:05:27 1826
  2594  7.7136e-03  1.2829e-03  1.1051e-03  7.6467e-03  1.6588e-03  5.7715e-04  0:04:22 1825

  iter  continuity  x-velocity  y-velocity      energy           k       omega     time/iter
  2595  7.4200e-03  1.2685e-03  1.0940e-03  7.3553e-03  1.6590e-03  5.7181e-04  0:03:29 1824
  2596  7.1228e-03  1.2542e-03  1.0841e-03  7.0604e-03  1.6599e-03  5.6696e-04  0:02:47 1823
  2597  6.8257e-03  1.2406e-03  1.0759e-03  6.7656e-03  1.6606e-03  5.6187e-04  0:02:14 1822
  2598  6.5331e-03  1.2274e-03  1.0692e-03  6.4753e-03  1.6613e-03  5.5600e-04  0:01:47 1821
  2599  6.2487e-03  1.2147e-03  1.0637e-03  6.1931e-03  1.6621e-03  5.5186e-04  0:01:25 1820
  2600  5.9777e-03  1.2031e-03  1.0599e-03  5.9244e-03  1.6629e-03  5.4679e-04  0:01:08 1819
  2601  5.7250e-03  1.1936e-03  1.0570e-03  5.6738e-03  1.6635e-03  5.4082e-04  0:00:55 1818
  2602  5.4947e-03  1.1854e-03  1.0549e-03  5.4455e-03  1.6638e-03  5.3641e-04  0:06:47 1817
  2603  5.2917e-03  1.1784e-03  1.0534e-03  5.2443e-03  1.6638e-03  5.3253e-04  0:05:26 1816
  2604  5.1196e-03  1.1713e-03  1.0521e-03  5.0738e-03  1.6637e-03  5.2860e-04  0:04:20 1815
  2605  4.9805e-03  1.1620e-03  1.0508e-03  4.9362e-03  1.6633e-03  5.2465e-04  0:03:28 1814

  iter  continuity  x-velocity  y-velocity      energy           k       omega     time/iter
  2606  4.8761e-03  1.1536e-03  1.0493e-03  4.8330e-03  1.6628e-03  5.2081e-04  0:02:46 1813
  2607  4.8054e-03  1.1474e-03  1.0476e-03  4.7633e-03  1.6623e-03  5.1700e-04  0:02:13 1812
  2608  4.7668e-03  1.1429e-03  1.0453e-03  4.7254e-03  1.6620e-03  5.1317e-04  0:01:46 1811
  2609  4.7560e-03  1.1347e-03  1.0422e-03  4.7151e-03  1.6615e-03  5.0926e-04  0:01:25 1810
  2610  4.7696e-03  1.1254e-03  1.0383e-03  4.7291e-03  1.6609e-03  5.0526e-04  0:01:08 1809
  2611  4.8016e-03  1.1168e-03  1.0333e-03  4.7611e-03  1.6598e-03  5.0142e-04  0:00:54 1808
  2612  4.8452e-03  1.1107e-03  1.0274e-03  4.8048e-03  1.6586e-03  4.9751e-04  0:00:43 1807
  2613  4.8919e-03  1.1026e-03  1.0203e-03  4.8513e-03  1.6563e-03  4.9398e-04  0:06:36 1806
  2614  4.9370e-03  1.0927e-03  1.0122e-03  4.8962e-03  1.6532e-03  4.9010e-04  0:05:17 1805
  2615  4.9750e-03  1.0840e-03  1.0035e-03  4.9339e-03  1.6487e-03  4.8633e-04  0:04:13 1804
  2616  5.0023e-03  1.0771e-03  9.9401e-04  4.9609e-03  1.6429e-03  4.8292e-04  0:03:22 1803

  iter  continuity  x-velocity  y-velocity      energy           k       omega     time/iter
  2617  5.0170e-03  1.0719e-03  9.8399e-04  4.9752e-03  1.6364e-03  4.7939e-04  0:02:42 1802
  2618  5.0137e-03  1.0688e-03  9.7348e-04  4.9715e-03  1.6287e-03  4.7578e-04  0:02:09 1801
  2619  4.9977e-03  1.0655e-03  9.6278e-04  4.9550e-03  1.6196e-03  4.7212e-04  0:01:43 1800
  2620  4.9678e-03  1.0614e-03  9.5205e-04  4.9245e-03  1.6095e-03  4.6879e-04  0:01:23 1799
  2621  4.9225e-03  1.0542e-03  9.4106e-04  4.8787e-03  1.5987e-03  4.6634e-04  0:01:06 1798
  2622  4.8513e-03  1.0501e-03  9.2999e-04  4.8068e-03  1.5887e-03  4.6308e-04  0:00:53 1797
  2623  4.7520e-03  1.0502e-03  9.2048e-04  4.7067e-03  1.5779e-03  4.5997e-04  0:06:41 1796
  2624  4.6491e-03  1.0522e-03  9.1064e-04  4.6030e-03  1.5669e-03  4.5680e-04  0:05:21 1795
  2625  4.5477e-03  1.0536e-03  9.0019e-04  4.5006e-03  1.5557e-03  4.5350e-04  0:04:17 1794
  2626  4.4484e-03  1.0543e-03  8.8839e-04  4.4004e-03  1.5441e-03  4.5020e-04  0:03:25 1793
  2627  4.3569e-03  1.0544e-03  8.7544e-04  4.3079e-03  1.5322e-03  4.4659e-04  0:02:44 1792

  iter  continuity  x-velocity  y-velocity      energy           k       omega     time/iter
  2628  4.2797e-03  1.0528e-03  8.6170e-04  4.2299e-03  1.5197e-03  4.4352e-04  0:02:11 1791
  2629  4.2209e-03  1.0490e-03  8.4763e-04  4.1704e-03  1.5069e-03  4.4022e-04  0:01:45 1790
  2630  4.1821e-03  1.0460e-03  8.3276e-04  4.1309e-03  1.4939e-03  4.3700e-04  0:01:24 1789
  2631  4.1652e-03  1.0425e-03  8.1698e-04  4.1137e-03  1.4807e-03  4.3338e-04  0:01:07 1788
  2632  4.1756e-03  1.0382e-03  8.0068e-04  4.1239e-03  1.4675e-03  4.2911e-04  0:00:54 1787
  2633  4.2154e-03  1.0329e-03  7.8414e-04  4.1638e-03  1.4539e-03  4.2642e-04  0:06:40 1786
  2634  4.2777e-03  1.0302e-03  7.6729e-04  4.2264e-03  1.4403e-03  4.2333e-04  0:05:20 1785
  2635  4.3534e-03  1.0300e-03  7.5003e-04  4.3025e-03  1.4268e-03  4.1960e-04  0:04:16 1784
  2636  4.4372e-03  1.0279e-03  7.3261e-04  4.3869e-03  1.4133e-03  4.1634e-04  0:03:24 1783
  2637  4.5369e-03  1.0250e-03  7.1560e-04  4.4871e-03  1.4001e-03  4.1330e-04  0:02:44 1782
  2638  4.6445e-03  1.0200e-03  6.9885e-04  4.5952e-03  1.3868e-03  4.1056e-04  0:02:11 1781

  iter  continuity  x-velocity  y-velocity      energy           k       omega     time/iter
  2639  4.7508e-03  1.0124e-03  6.8341e-04  4.7021e-03  1.3735e-03  4.0734e-04  0:01:45 1780
  2640  4.8501e-03  1.0067e-03  6.6898e-04  4.8018e-03  1.3610e-03  4.0358e-04  0:01:24 1779
  2641  4.9375e-03  1.0022e-03  6.5451e-04  4.8897e-03  1.3487e-03  4.0080e-04  0:01:07 1778
  2642  5.0089e-03  9.9678e-04  6.4066e-04  4.9614e-03  1.3364e-03  3.9774e-04  0:00:53 1777
  2643  5.0627e-03  9.9452e-04  6.2830e-04  5.0155e-03  1.3244e-03  3.9454e-04  0:06:38 1776
  2644  5.0972e-03  9.9135e-04  6.1727e-04  5.0503e-03  1.3128e-03  3.9163e-04  0:05:18 1775
  2645  5.1121e-03  9.8789e-04  6.0683e-04  5.0655e-03  1.3023e-03  3.8945e-04  0:04:14 1774
  2646  5.1056e-03  9.9034e-04  5.9744e-04  5.0593e-03  1.2922e-03  3.8727e-04  0:03:23 1773
  2647  5.0745e-03  9.9137e-04  5.8908e-04  5.0284e-03  1.2830e-03  3.8537e-04  0:02:43 1772
  2648  5.0160e-03  9.8927e-04  5.8165e-04  4.9703e-03  1.2745e-03  3.8344e-04  0:02:10 1771
  2649  4.9311e-03  9.8542e-04  5.7481e-04  4.8858e-03  1.2666e-03  3.8154e-04  0:01:44 1770

  iter  continuity  x-velocity  y-velocity      energy           k       omega     time/iter
  2650  4.8229e-03  9.7894e-04  5.6895e-04  4.7781e-03  1.2591e-03  3.7981e-04  0:07:17 1769
  2651  4.6941e-03  9.7335e-04  5.6384e-04  4.6499e-03  1.2518e-03  3.7847e-04  0:05:49 1768
  2652  4.5434e-03  9.6553e-04  5.5944e-04  4.4998e-03  1.2446e-03  3.7757e-04  0:04:39 1767
  2653  4.3726e-03  9.5658e-04  5.5544e-04  4.3297e-03  1.2375e-03  3.7669e-04  0:03:43 1766
  2654  4.1842e-03  9.4808e-04  5.5158e-04  4.1420e-03  1.2303e-03  3.7582e-04  0:02:59 1765
  2655  3.9805e-03  9.4210e-04  5.4816e-04  3.9391e-03  1.2230e-03  3.7508e-04  0:02:23 1764
  2656  3.7656e-03  9.3747e-04  5.4512e-04  3.7250e-03  1.2157e-03  3.7458e-04  0:01:54 1763
  2657  3.5435e-03  9.3518e-04  5.4190e-04  3.5038e-03  1.2080e-03  3.7398e-04  0:01:31 1762
  2658  3.3186e-03  9.3647e-04  5.3867e-04  3.2797e-03  1.2002e-03  3.7328e-04  0:01:13 1761
  2659  3.0954e-03  9.3776e-04  5.3505e-04  3.0571e-03  1.1927e-03  3.7258e-04  0:00:58 1760
  2660  2.8800e-03  9.2640e-04  5.3123e-04  2.8423e-03  1.1845e-03  3.7176e-04  0:06:38 1759

  iter  continuity  x-velocity  y-velocity      energy           k       omega     time/iter
  2661  2.6803e-03  9.1526e-04  5.2721e-04  2.6430e-03  1.1770e-03  3.7097e-04  0:05:19 1758
  2662  2.5029e-03  9.0415e-04  5.2344e-04  2.4658e-03  1.1694e-03  3.7041e-04  0:04:15 1757
  2663  2.3555e-03  8.9461e-04  5.1951e-04  2.3185e-03  1.1626e-03  3.6970e-04  0:03:24 1756
  2664  2.2457e-03  8.8655e-04  5.1481e-04  2.2087e-03  1.1562e-03  3.6833e-04  0:02:43 1755
  2665  2.1794e-03  8.7913e-04  5.1002e-04  2.1424e-03  1.1505e-03  3.6765e-04  0:02:10 1754
  2666  2.1606e-03  8.7327e-04  5.0489e-04  2.1237e-03  1.1454e-03  3.6701e-04  0:01:44 1753
  2667  2.1867e-03  8.6764e-04  4.9929e-04  2.1501e-03  1.1406e-03  3.6621e-04  0:01:23 1752
  2668  2.2523e-03  8.6437e-04  4.9340e-04  2.2159e-03  1.1369e-03  3.6514e-04  0:01:07 1751
  2669  2.3491e-03  8.5963e-04  4.8713e-04  2.3130e-03  1.1336e-03  3.6413e-04  0:00:53 1750
  2670  2.4684e-03  8.5006e-04  4.8076e-04  2.4323e-03  1.1307e-03  3.6318e-04  0:06:32 1749
  2671  2.6012e-03  8.3971e-04  4.7463e-04  2.5650e-03  1.1279e-03  3.6172e-04  0:05:14 1748

  iter  continuity  x-velocity  y-velocity      energy           k       omega     time/iter
  2672  2.7418e-03  8.3002e-04  4.6852e-04  2.7055e-03  1.1252e-03  3.6031e-04  0:04:11 1747
  2673  2.8843e-03  8.2290e-04  4.6258e-04  2.8477e-03  1.1226e-03  3.5904e-04  0:03:21 1746
  2674  3.0228e-03  8.1582e-04  4.5651e-04  2.9860e-03  1.1200e-03  3.5803e-04  0:02:40 1745
  2675  3.1534e-03  8.1024e-04  4.5029e-04  3.1163e-03  1.1174e-03  3.5681e-04  0:02:08 1744
  2676  3.2751e-03  8.0416e-04  4.4418e-04  3.2377e-03  1.1149e-03  3.5563e-04  0:01:42 1743
  2677  3.3847e-03  7.9458e-04  4.3839e-04  3.3471e-03  1.1131e-03  3.5455e-04  0:01:22 1742
  2678  3.4805e-03  7.9054e-04  4.3301e-04  3.4427e-03  1.1119e-03  3.5358e-04  0:01:06 1741
  2679  3.5632e-03  7.9189e-04  4.2830e-04  3.5252e-03  1.1112e-03  3.5279e-04  0:00:52 1740
  2680  3.6322e-03  7.9419e-04  4.2386e-04  3.5941e-03  1.1110e-03  3.5211e-04  0:00:42 1739
  2681  3.6865e-03  7.9131e-04  4.1954e-04  3.6482e-03  1.1112e-03  3.5131e-04  0:06:21 1738
  2682  3.7260e-03  7.7971e-04  4.1520e-04  3.6877e-03  1.1119e-03  3.5038e-04  0:05:05 1737

  iter  continuity  x-velocity  y-velocity      energy           k       omega     time/iter
  2683  3.7523e-03  7.6672e-04  4.1079e-04  3.7140e-03  1.1129e-03  3.4916e-04  0:04:04 1736
  2684  3.7665e-03  7.5690e-04  4.0636e-04  3.7281e-03  1.1138e-03  3.4837e-04  0:03:15 1735
  2685  3.7703e-03  7.5031e-04  4.0241e-04  3.7320e-03  1.1146e-03  3.4732e-04  0:02:36 1734
  2686  3.7651e-03  7.4827e-04  3.9870e-04  3.7268e-03  1.1153e-03  3.4579e-04  0:02:05 1733
  2687  3.7522e-03  7.5310e-04  3.9487e-04  3.7139e-03  1.1159e-03  3.4437e-04  0:01:40 1732
  2688  3.7325e-03  7.6053e-04  3.9090e-04  3.6942e-03  1.1162e-03  3.4292e-04  0:01:20 1731
  2689  3.7070e-03  7.6090e-04  3.8683e-04  3.6688e-03  1.1161e-03  3.4153e-04  0:01:04 1730
  2690  3.6775e-03  7.6076e-04  3.8264e-04  3.6394e-03  1.1156e-03  3.4010e-04  0:00:51 1729
  2691  3.6452e-03  7.5915e-04  3.7828e-04  3.6071e-03  1.1150e-03  3.3852e-04  0:06:26 1728
  2692  3.6114e-03  7.5517e-04  3.7404e-04  3.5733e-03  1.1143e-03  3.3670e-04  0:05:09 1727
  2693  3.5776e-03  7.6043e-04  3.7013e-04  3.5396e-03  1.1132e-03  3.3430e-04  0:04:07 1726

  iter  continuity  x-velocity  y-velocity      energy           k       omega     time/iter
  2694  3.5455e-03  7.8106e-04  3.6634e-04  3.5074e-03  1.1123e-03  3.3238e-04  0:03:17 1725
  2695  3.5142e-03  7.8402e-04  3.6253e-04  3.4761e-03  1.1110e-03  3.3001e-04  0:02:38 1724
  2696  3.4844e-03  7.6866e-04  3.5908e-04  3.4463e-03  1.1096e-03  3.2727e-04  0:02:06 1723
  2697  3.4576e-03  7.4805e-04  3.5591e-04  3.4196e-03  1.1078e-03  3.2456e-04  0:01:41 1722
  2698  3.4349e-03  7.3056e-04  3.5309e-04  3.3969e-03  1.1056e-03  3.2226e-04  0:01:21 1721
  2699  3.4171e-03  7.1767e-04  3.5097e-04  3.3789e-03  1.1032e-03  3.1979e-04  0:01:05 1720
  2700  3.4040e-03  7.1167e-04  3.4926e-04  3.3658e-03  1.1009e-03  3.1725e-04  0:06:35 1719
  2701  3.3959e-03  7.0461e-04  3.4780e-04  3.3576e-03  1.0985e-03  3.1444e-04  0:05:16 1718
  2702  3.3926e-03  6.9554e-04  3.4685e-04  3.3542e-03  1.0958e-03  3.1144e-04  0:04:13 1717
  2703  3.3944e-03  6.8814e-04  3.4628e-04  3.3560e-03  1.0931e-03  3.0880e-04  0:03:22 1716
  2704  3.4014e-03  6.8254e-04  3.4609e-04  3.3629e-03  1.0904e-03  3.0624e-04  0:02:42 1715

  iter  continuity  x-velocity  y-velocity      energy           k       omega     time/iter
  2705  3.4133e-03  6.7863e-04  3.4623e-04  3.3747e-03  1.0876e-03  3.0364e-04  0:02:09 1714
  2706  3.4298e-03  6.7492e-04  3.4685e-04  3.3911e-03  1.0845e-03  3.0101e-04  0:01:43 1713
  2707  3.4503e-03  6.6927e-04  3.4764e-04  3.4116e-03  1.0816e-03  2.9844e-04  0:01:23 1712
  2708  3.4743e-03  6.6667e-04  3.4834e-04  3.4355e-03  1.0784e-03  2.9581e-04  0:01:06 1711
  2709  3.5012e-03  6.6573e-04  3.4945e-04  3.4623e-03  1.0753e-03  2.9316e-04  0:00:53 1710
  2710  3.5299e-03  6.6600e-04  3.5065e-04  3.4910e-03  1.0721e-03  2.9063e-04  0:06:24 1709
  2711  3.5597e-03  6.6857e-04  3.5193e-04  3.5207e-03  1.0690e-03  2.8801e-04  0:05:07 1708
  2712  3.5895e-03  6.7055e-04  3.5316e-04  3.5505e-03  1.0659e-03  2.8558e-04  0:04:05 1707
  2713  3.6185e-03  6.6981e-04  3.5429e-04  3.5795e-03  1.0629e-03  2.8333e-04  0:03:16 1706
  2714  3.6457e-03  6.6875e-04  3.5536e-04  3.6067e-03  1.0602e-03  2.8134e-04  0:02:37 1705
  2715  3.6701e-03  6.6957e-04  3.5646e-04  3.6311e-03  1.0574e-03  2.7937e-04  0:02:05 1704

  iter  continuity  x-velocity  y-velocity      energy           k       omega     time/iter
  2716  3.6906e-03  6.7130e-04  3.5749e-04  3.6517e-03  1.0544e-03  2.7727e-04  0:01:40 1703
  2717  3.7063e-03  6.7215e-04  3.5848e-04  3.6675e-03  1.0513e-03  2.7544e-04  0:01:20 1702
  2718  3.7164e-03  6.7325e-04  3.5949e-04  3.6776e-03  1.0481e-03  2.7355e-04  0:01:04 1701
  2719  3.7203e-03  6.7393e-04  3.6031e-04  3.6815e-03  1.0447e-03  2.7170e-04  0:00:51 1700
  2720  3.7175e-03  6.7580e-04  3.6128e-04  3.6788e-03  1.0412e-03  2.6992e-04  0:06:21 1699
  2721  3.7074e-03  6.8192e-04  3.6244e-04  3.6688e-03  1.0375e-03  2.6817e-04  0:05:04 1698
  2722  3.6900e-03  6.9092e-04  3.6394e-04  3.6514e-03  1.0338e-03  2.6637e-04  0:04:03 1697
  2723  3.6657e-03  7.0505e-04  3.6535e-04  3.6270e-03  1.0300e-03  2.6487e-04  0:03:15 1696
  2724  3.6346e-03  7.2475e-04  3.6686e-04  3.5957e-03  1.0259e-03  2.6378e-04  0:02:36 1695
  2725  3.5966e-03  7.4456e-04  3.6857e-04  3.5574e-03  1.0216e-03  2.6271e-04  0:02:04 1694
  2726  3.5513e-03  7.6060e-04  3.6983e-04  3.5120e-03  1.0172e-03  2.6188e-04  0:01:39 1693

  iter  continuity  x-velocity  y-velocity      energy           k       omega     time/iter
  2727  3.5007e-03  7.7929e-04  3.7046e-04  3.4612e-03  1.0128e-03  2.6128e-04  0:01:20 1692
  2728  3.4448e-03  7.9108e-04  3.7123e-04  3.4050e-03  1.0082e-03  2.6096e-04  0:01:04 1691
  2729  3.3847e-03  8.0365e-04  3.7202e-04  3.3445e-03  1.0037e-03  2.6081e-04  0:06:29 1690
  2730  3.3216e-03  8.1840e-04  3.7238e-04  3.2810e-03  9.9914e-04  2.6118e-04  0:05:11 1689
  2731  3.2560e-03  8.2343e-04  3.7235e-04  3.2150e-03  9.9446e-04  2.6184e-04  0:04:09 1688
  2732  3.1897e-03  8.2815e-04  3.7229e-04  3.1481e-03  9.8955e-04  2.6274e-04  0:03:19 1687
  2733  3.1243e-03  8.3512e-04  3.7193e-04  3.0821e-03  9.8467e-04  2.6384e-04  0:02:39 1686
  2734  3.0599e-03  8.3367e-04  3.7145e-04  3.0169e-03  9.7961e-04  2.6501e-04  0:02:07 1685
  2735  2.9976e-03  8.2597e-04  3.7029e-04  2.9539e-03  9.7426e-04  2.6617e-04  0:01:42 1684
  2736  2.9406e-03  8.3712e-04  3.6868e-04  2.8961e-03  9.6855e-04  2.6787e-04  0:01:21 1683
  2737  2.8892e-03  8.5509e-04  3.6685e-04  2.8437e-03  9.6262e-04  2.6978e-04  0:01:05 1682

  iter  continuity  x-velocity  y-velocity      energy           k       omega     time/iter
  2738  2.8428e-03  8.6085e-04  3.6521e-04  2.7964e-03  9.5628e-04  2.7160e-04  0:00:52 1681
  2739  2.8032e-03  8.7517e-04  3.6342e-04  2.7558e-03  9.4969e-04  2.7380e-04  0:00:42 1680
  2740  2.7692e-03  8.8197e-04  3.6157e-04  2.7210e-03  9.4274e-04  2.7626e-04  0:06:09 1679
  2741  2.7411e-03  8.8066e-04  3.5921e-04  2.6920e-03  9.3536e-04  2.7862e-04  0:04:55 1678
  2742  2.7190e-03  8.8589e-04  3.5618e-04  2.6691e-03  9.2754e-04  2.8086e-04  0:03:56 1677
  2743  2.7041e-03  8.9669e-04  3.5365e-04  2.6534e-03  9.1929e-04  2.8293e-04  0:03:09 1676
  2744  2.6947e-03  9.0470e-04  3.5294e-04  2.6431e-03  9.1061e-04  2.8445e-04  0:02:31 1675
  2745  2.6901e-03  9.2184e-04  3.5243e-04  2.6376e-03  9.0153e-04  2.8626e-04  0:02:01 1674
  2746  2.6895e-03  9.4230e-04  3.5093e-04  2.6361e-03  8.9216e-04  2.8842e-04  0:01:36 1673
  2747  2.6912e-03  9.5157e-04  3.4849e-04  2.6369e-03  8.8247e-04  2.9037e-04  0:01:17 1672
  2748  2.6940e-03  9.5230e-04  3.4453e-04  2.6388e-03  8.7252e-04  2.9230e-04  0:01:02 1671

  iter  continuity  x-velocity  y-velocity      energy           k       omega     time/iter
  2749  2.7002e-03  9.7160e-04  3.4065e-04  2.6443e-03  8.6236e-04  2.9413e-04  0:00:49 1670
  2750  2.7063e-03  9.7788e-04  3.3926e-04  2.6496e-03  8.5184e-04  2.9591e-04  0:06:13 1669
  2751  2.7128e-03  9.7948e-04  3.3898e-04  2.6550e-03  8.4101e-04  2.9768e-04  0:04:58 1668
  2752  2.7197e-03  9.8553e-04  3.3894e-04  2.6608e-03  8.2995e-04  2.9943e-04  0:03:59 1667
  2753  2.7247e-03  9.9372e-04  3.3964e-04  2.6647e-03  8.1863e-04  3.0139e-04  0:03:11 1666
  2754  2.7290e-03  9.9216e-04  3.4178e-04  2.6681e-03  8.0713e-04  3.0347e-04  0:02:32 1665
  2755  2.7353e-03  1.0070e-03  3.4489e-04  2.6734e-03  7.9549e-04  3.0555e-04  0:02:02 1664
  2756  2.7426e-03  1.0266e-03  3.4587e-04  2.6797e-03  7.8380e-04  3.0748e-04  0:01:37 1663
  2757  2.7506e-03  1.0398e-03  3.4889e-04  2.6865e-03  7.7210e-04  3.0922e-04  0:01:18 1662
  2758  2.7586e-03  1.0396e-03  3.4906e-04  2.6934e-03  7.6034e-04  3.1118e-04  0:01:02 1661
  2759  2.7679e-03  1.0285e-03  3.4946e-04  2.7009e-03  7.4869e-04  3.1302e-04  0:00:50 1660

  iter  continuity  x-velocity  y-velocity      energy           k       omega     time/iter
  2760  2.7806e-03  1.0536e-03  3.5098e-04  2.7120e-03  7.3724e-04  3.1437e-04  0:06:12 1659
  2761  2.7922e-03  1.0503e-03  3.5291e-04  2.7221e-03  7.2595e-04  3.1617e-04  0:04:57 1658
  2762  2.8019e-03  9.9560e-04  3.5203e-04  2.7311e-03  7.1501e-04  3.1795e-04  0:03:58 1657
  2763  2.8170e-03  9.7136e-04  3.5203e-04  2.7455e-03  7.0442e-04  3.1949e-04  0:03:10 1656
  2764  2.8351e-03  9.5691e-04  3.5319e-04  2.7630e-03  6.9452e-04  3.2068e-04  0:02:32 1655
  2765  2.8573e-03  9.5182e-04  3.5275e-04  2.7842e-03  6.8533e-04  3.2159e-04  0:02:01 1654
  2766  2.8832e-03  9.5320e-04  3.5196e-04  2.8089e-03  6.7700e-04  3.2246e-04  0:01:37 1653
  2767  2.9119e-03  9.5093e-04  3.5107e-04  2.8365e-03  6.6961e-04  3.2336e-04  0:01:18 1652
  2768  2.9437e-03  9.5183e-04  3.5015e-04  2.8671e-03  6.6326e-04  3.2421e-04  0:01:02 1651
  2769  2.9780e-03  9.5135e-04  3.5114e-04  2.9001e-03  6.5768e-04  3.2484e-04  0:00:50 1650
  2770  3.0146e-03  9.5718e-04  3.5295e-04  2.9355e-03  6.5288e-04  3.2511e-04  0:06:09 1649

  iter  continuity  x-velocity  y-velocity      energy           k       omega     time/iter
  2771  3.0512e-03  9.5831e-04  3.5393e-04  2.9712e-03  6.4877e-04  3.2513e-04  0:04:55 1648
  2772  3.0899e-03  9.6282e-04  3.5493e-04  3.0089e-03  6.4523e-04  3.2438e-04  0:03:56 1647
  2773  3.1287e-03  9.6472e-04  3.5628e-04  3.0466e-03  6.4231e-04  3.2399e-04  0:03:09 1646
  2774  3.1679e-03  9.6960e-04  3.5655e-04  3.0847e-03  6.4004e-04  3.2398e-04  0:02:31 1645
  2775  3.2078e-03  9.8298e-04  3.5659e-04  3.1235e-03  6.3835e-04  3.2366e-04  0:02:01 1644
  2776  3.2466e-03  9.9911e-04  3.5520e-04  3.1613e-03  6.3719e-04  3.2286e-04  0:01:37 1643
  2777  3.2819e-03  1.0009e-03  3.5500e-04  3.1958e-03  6.3650e-04  3.2186e-04  0:01:17 1642
  2778  3.3165e-03  9.9017e-04  3.5569e-04  3.2296e-03  6.3624e-04  3.2095e-04  0:01:02 1641
  2779  3.3511e-03  1.0067e-03  3.5856e-04  3.2634e-03  6.3635e-04  3.2001e-04  0:06:17 1640
  2780  3.3834e-03  1.0330e-03  3.6045e-04  3.2950e-03  6.3680e-04  3.1904e-04  0:05:02 1639
  2781  3.4131e-03  1.0576e-03  3.6054e-04  3.3240e-03  6.3757e-04  3.1802e-04  0:04:01 1638

  iter  continuity  x-velocity  y-velocity      energy           k       omega     time/iter
  2782  3.4399e-03  1.0691e-03  3.6360e-04  3.3500e-03  6.3876e-04  3.1703e-04  0:03:13 1637
  2783  3.4668e-03  1.0697e-03  3.6355e-04  3.3757e-03  6.4037e-04  3.1585e-04  0:02:34 1636
  2784  3.4934e-03  1.0914e-03  3.6447e-04  3.4006e-03  6.4239e-04  3.1437e-04  0:02:03 1635
  2785  3.5169e-03  1.1065e-03  3.6588e-04  3.4224e-03  6.4477e-04  3.1271e-04  0:01:39 1634
  2786  3.5336e-03  1.0921e-03  3.6745e-04  3.4380e-03  6.4746e-04  3.1085e-04  0:01:19 1633
  2787  3.5427e-03  1.0090e-03  3.6483e-04  3.4469e-03  6.5054e-04  3.0890e-04  0:06:29 1632
  2788  3.5547e-03  9.7158e-04  3.6290e-04  3.4584e-03  6.5392e-04  3.0695e-04  0:05:11 1631
  2789  3.5658e-03  9.4859e-04  3.6274e-04  3.4687e-03  6.5752e-04  3.0495e-04  0:04:09 1630
  2790  3.5755e-03  9.3478e-04  3.6165e-04  3.4774e-03  6.6132e-04  3.0299e-04  0:03:19 1629
  2791  3.5858e-03  9.3543e-04  3.6216e-04  3.4867e-03  6.6530e-04  3.0102e-04  0:02:39 1628
  2792  3.5956e-03  9.4919e-04  3.6336e-04  3.4958e-03  6.6946e-04  2.9897e-04  0:02:07 1627

  iter  continuity  x-velocity  y-velocity      energy           k       omega     time/iter
  2793  3.6039e-03  9.5176e-04  3.6438e-04  3.5036e-03  6.7365e-04  2.9682e-04  0:01:42 1626
  2794  3.6120e-03  9.4221e-04  3.6462e-04  3.5108e-03  6.7787e-04  2.9449e-04  0:01:21 1625
  2795  3.6197e-03  9.4230e-04  3.6358e-04  3.5177e-03  6.8212e-04  2.9215e-04  0:01:05 1624
  2796  3.6280e-03  9.4158e-04  3.6301e-04  3.5253e-03  6.8634e-04  2.9012e-04  0:00:52 1623
  2797  3.6351e-03  9.3982e-04  3.6458e-04  3.5321e-03  6.9045e-04  2.8789e-04  0:06:06 1622
  2798  3.6427e-03  9.2342e-04  3.6538e-04  3.5394e-03  6.9439e-04  2.8553e-04  0:04:53 1621
  2799  3.6505e-03  9.2048e-04  3.6586e-04  3.5468e-03  6.9813e-04  2.8331e-04  0:03:54 1620
  2800  3.6594e-03  9.2406e-04  3.6740e-04  3.5556e-03  7.0170e-04  2.8112e-04  0:03:07 1619
  2801  3.6675e-03  9.3944e-04  3.7095e-04  3.5638e-03  7.0510e-04  2.7898e-04  0:02:30 1618
  2802  3.6756e-03  9.3585e-04  3.7263e-04  3.5722e-03  7.0823e-04  2.7694e-04  0:02:00 1617
  2803  3.6854e-03  9.4675e-04  3.7198e-04  3.5820e-03  7.1118e-04  2.7484e-04  0:01:36 1616

  iter  continuity  x-velocity  y-velocity      energy           k       omega     time/iter
  2804  3.6954e-03  9.7412e-04  3.7275e-04  3.5924e-03  7.1398e-04  2.7276e-04  0:01:16 1615
  2805  3.7042e-03  1.0001e-03  3.7390e-04  3.6013e-03  7.1653e-04  2.7072e-04  0:01:01 1614
  2806  3.7125e-03  9.7667e-04  3.7813e-04  3.6098e-03  7.1890e-04  2.6863e-04  0:00:49 1613
  2807  3.7235e-03  9.8605e-04  3.8420e-04  3.6212e-03  7.2085e-04  2.6650e-04  0:06:01 1612
  2808  3.7364e-03  1.0317e-03  3.9097e-04  3.6334e-03  7.2248e-04  2.6430e-04  0:04:49 1611
  2809  3.7473e-03  1.0537e-03  3.9717e-04  3.6443e-03  7.2376e-04  2.6247e-04  0:03:51 1610
  2810  3.7431e-03  9.4777e-04  3.9482e-04  3.6418e-03  7.2467e-04  2.6073e-04  0:03:05 1609
  2811  3.7466e-03  9.2182e-04  3.9093e-04  3.6465e-03  7.2524e-04  2.5908e-04  0:02:28 1608
  2812  3.7501e-03  9.0119e-04  3.9110e-04  3.6508e-03  7.2542e-04  2.5754e-04  0:01:58 1607
  2813  3.7536e-03  8.9830e-04  3.9034e-04  3.6553e-03  7.2519e-04  2.5597e-04  0:01:34 1606
  2814  3.7564e-03  9.0036e-04  3.9012e-04  3.6589e-03  7.2466e-04  2.5452e-04  0:01:15 1605

  iter  continuity  x-velocity  y-velocity      energy           k       omega     time/iter
  2815  3.7596e-03  9.0710e-04  3.8997e-04  3.6627e-03  7.2383e-04  2.5319e-04  0:01:00 1604
  2816  3.7607e-03  8.8355e-04  3.9159e-04  3.6644e-03  7.2264e-04  2.5197e-04  0:00:48 1603
  2817  3.7611e-03  8.6624e-04  3.9227e-04  3.6651e-03  7.2122e-04  2.5071e-04  0:00:39 1602
  2818  3.7605e-03  8.5892e-04  3.9342e-04  3.6649e-03  7.1945e-04  2.4968e-04  0:05:51 1601
  2819  3.7593e-03  8.6291e-04  3.9018e-04  3.6640e-03  7.1748e-04  2.4851e-04  0:04:41 1600
  2820  3.7564e-03  8.8640e-04  3.9263e-04  3.6616e-03  7.1529e-04  2.4743e-04  0:03:44 1599
  2821  3.7518e-03  8.9650e-04  3.9017e-04  3.6577e-03  7.1296e-04  2.4644e-04  0:02:59 1598
  2822  3.7474e-03  9.2848e-04  3.9090e-04  3.6536e-03  7.1044e-04  2.4526e-04  0:02:23 1597
  2823  3.7372e-03  9.3858e-04  3.9037e-04  3.6441e-03  7.0776e-04  2.4399e-04  0:01:55 1596
  2824  3.7255e-03  9.6107e-04  3.9131e-04  3.6333e-03  7.0491e-04  2.4295e-04  0:01:32 1595
  2825  3.7119e-03  9.5438e-04  3.9027e-04  3.6202e-03  7.0194e-04  2.4210e-04  0:01:13 1594

  iter  continuity  x-velocity  y-velocity      energy           k       omega     time/iter
  2826  3.6981e-03  9.6153e-04  3.8915e-04  3.6070e-03  6.9885e-04  2.4126e-04  0:00:59 1593
  2827  3.6791e-03  9.5497e-04  3.8771e-04  3.5889e-03  6.9569e-04  2.4049e-04  0:00:47 1592
  2828  3.6580e-03  9.4648e-04  3.8680e-04  3.5688e-03  6.9253e-04  2.3990e-04  0:05:56 1591
  2829  3.6372e-03  9.2399e-04  3.8727e-04  3.5491e-03  6.8944e-04  2.3937e-04  0:04:44 1590
  2830  3.6172e-03  9.1720e-04  3.9204e-04  3.5297e-03  6.8624e-04  2.3884e-04  0:03:47 1589
  2831  3.5952e-03  9.0823e-04  3.9412e-04  3.5081e-03  6.8300e-04  2.3839e-04  0:03:02 1588
  2832  3.5782e-03  9.3938e-04  3.9502e-04  3.4910e-03  6.7980e-04  2.3791e-04  0:02:25 1587
  2833  3.5511e-03  9.1101e-04  3.9422e-04  3.4648e-03  6.7671e-04  2.3732e-04  0:01:56 1586
  2834  3.5221e-03  8.7939e-04  3.8971e-04  3.4374e-03  6.7351e-04  2.3705e-04  0:01:33 1585
  2835  3.4948e-03  8.7083e-04  3.8896e-04  3.4111e-03  6.7020e-04  2.3672e-04  0:01:14 1584
  2836  3.4671e-03  8.3769e-04  3.8724e-04  3.3838e-03  6.6669e-04  2.3658e-04  0:00:59 1583

  iter  continuity  x-velocity  y-velocity      energy           k       omega     time/iter
  2837  3.4406e-03  8.3074e-04  3.8666e-04  3.3578e-03  6.6307e-04  2.3663e-04  0:00:47 1582
  2838  3.4127e-03  8.2312e-04  3.8239e-04  3.3303e-03  6.5929e-04  2.3660e-04  0:05:54 1581
  2839  3.3836e-03  8.1557e-04  3.7634e-04  3.3018e-03  6.5534e-04  2.3654e-04  0:04:43 1580
  2840  3.3550e-03  8.0593e-04  3.7048e-04  3.2731e-03  6.5133e-04  2.3643e-04  0:03:46 1579
  2841  3.3257e-03  7.9093e-04  3.6680e-04  3.2436e-03  6.4724e-04  2.3617e-04  0:03:01 1578
  2842  3.2956e-03  8.0103e-04  3.6239e-04  3.2135e-03  6.4293e-04  2.3580e-04  0:02:25 1577
  2843  3.2648e-03  8.3672e-04  3.6368e-04  3.1828e-03  6.3829e-04  2.3523e-04  0:01:56 1576
  2844  3.2334e-03  8.7559e-04  3.6201e-04  3.1520e-03  6.3354e-04  2.3462e-04  0:01:32 1575
  2845  3.1993e-03  8.4443e-04  3.6209e-04  3.1175e-03  6.2870e-04  2.3421e-04  0:01:14 1574
  2846  3.1635e-03  8.3917e-04  3.5839e-04  3.0817e-03  6.2376e-04  2.3360e-04  0:00:59 1573
  2847  3.1281e-03  8.5688e-04  3.5617e-04  3.0464e-03  6.1871e-04  2.3303e-04  0:00:47 1572

  iter  continuity  x-velocity  y-velocity      energy           k       omega     time/iter
  2848  3.0903e-03  8.7869e-04  3.5114e-04  3.0089e-03  6.1360e-04  2.3232e-04  0:05:52 1571
  2849  3.0525e-03  8.7935e-04  3.4915e-04  2.9711e-03  6.0853e-04  2.3165e-04  0:04:41 1570
  2850  3.0145e-03  8.7914e-04  3.4775e-04  2.9331e-03  6.0352e-04  2.3101e-04  0:03:45 1569
  2851  2.9789e-03  9.1118e-04  3.5075e-04  2.8975e-03  5.9859e-04  2.3021e-04  0:03:00 1568
  2852  2.9410e-03  9.3564e-04  3.5399e-04  2.8598e-03  5.9370e-04  2.2974e-04  0:02:24 1567
  2853  2.9016e-03  9.0434e-04  3.5528e-04  2.8206e-03  5.8901e-04  2.2937e-04  0:01:55 1566
  2854  2.8672e-03  8.9921e-04  3.5758e-04  2.7861e-03  5.8439e-04  2.2890e-04  0:01:32 1565
  2855  2.8384e-03  9.3841e-04  3.5415e-04  2.7571e-03  5.7990e-04  2.2836e-04  0:01:13 1564
  2856  2.8140e-03  9.6099e-04  3.5311e-04  2.7320e-03  5.7544e-04  2.2773e-04  0:00:59 1563
  2857  2.7807e-03  9.7387e-04  3.5310e-04  2.6991e-03  5.7106e-04  2.2699e-04  0:00:47 1562
  2858  2.7456e-03  9.2580e-04  3.4779e-04  2.6652e-03  5.6680e-04  2.2628e-04  0:00:38 1561

  iter  continuity  x-velocity  y-velocity      energy           k       omega     time/iter
  2859  2.7197e-03  9.2516e-04  3.4883e-04  2.6401e-03  5.6285e-04  2.2550e-04  0:05:42 1560
  2860  2.6917e-03  9.0450e-04  3.4907e-04  2.6131e-03  5.5906e-04  2.2523e-04  0:04:33 1559
  2861  2.6724e-03  9.0266e-04  3.4721e-04  2.5940e-03  5.5535e-04  2.2490e-04  0:03:39 1558
  2862  2.6522e-03  9.0156e-04  3.4557e-04  2.5739e-03  5.5181e-04  2.2455e-04  0:02:55 1557
  2863  2.6338e-03  9.0685e-04  3.4113e-04  2.5558e-03  5.4823e-04  2.2431e-04  0:02:20 1556
  2864  2.6207e-03  9.2800e-04  3.3629e-04  2.5427e-03  5.4464e-04  2.2406e-04  0:01:52 1555
  2865  2.6084e-03  9.2464e-04  3.3627e-04  2.5297e-03  5.4105e-04  2.2371e-04  0:01:29 1554
  2866  2.5961e-03  9.1153e-04  3.3616e-04  2.5177e-03  5.3754e-04  2.2330e-04  0:01:11 1553
  2867  2.5882e-03  9.1247e-04  3.3777e-04  2.5096e-03  5.3424e-04  2.2286e-04  0:00:57 1552
  2868  2.5779e-03  9.2725e-04  3.4026e-04  2.4990e-03  5.3113e-04  2.2226e-04  0:00:46 1551
  2869  2.5765e-03  9.7889e-04  3.3537e-04  2.4970e-03  5.2825e-04  2.2175e-04  0:00:36 1550

  iter  continuity  x-velocity  y-velocity      energy           k       omega     time/iter
  2870  2.5622e-03  9.6989e-04  3.3356e-04  2.4832e-03  5.2547e-04  2.2175e-04  0:05:39 1549
  2871  2.5485e-03  9.1068e-04  3.3350e-04  2.4706e-03  5.2274e-04  2.2165e-04  0:04:31 1548
  2872  2.5382e-03  8.9833e-04  3.3170e-04  2.4611e-03  5.2015e-04  2.2097e-04  0:03:37 1547
  2873  2.5315e-03  9.3248e-04  3.3118e-04  2.4549e-03  5.1767e-04  2.1999e-04  0:02:53 1546
  2874  2.5209e-03  9.3547e-04  3.2636e-04  2.4453e-03  5.1521e-04  2.1961e-04  0:02:18 1545
  2875  2.5132e-03  9.1648e-04  3.2383e-04  2.4385e-03  5.1268e-04  2.1910e-04  0:01:51 1544
  2876  2.5147e-03  9.5832e-04  3.2777e-04  2.4404e-03  5.1004e-04  2.1844e-04  0:01:29 1543
  2877  2.5178e-03  1.0056e-03  3.3262e-04  2.4434e-03  5.0727e-04  2.1755e-04  0:01:11 1542
  2878  2.5188e-03  9.9678e-04  3.3406e-04  2.4440e-03  5.0445e-04  2.1674e-04  0:00:57 1541
  2879  2.5248e-03  1.0399e-03  3.3853e-04  2.4486e-03  5.0159e-04  2.1599e-04  0:00:45 1540
  2880  2.5166e-03  9.9603e-04  3.3829e-04  2.4403e-03  4.9877e-04  2.1514e-04  0:05:44 1539

  iter  continuity  x-velocity  y-velocity      energy           k       omega     time/iter
  2881  2.5045e-03  9.1424e-04  3.2979e-04  2.4298e-03  4.9618e-04  2.1455e-04  0:04:35 1538
  2882  2.4989e-03  9.0043e-04  3.2730e-04  2.4257e-03  4.9382e-04  2.1390e-04  0:03:40 1537
  2883  2.4945e-03  8.8802e-04  3.2695e-04  2.4216e-03  4.9172e-04  2.1324e-04  0:02:56 1536
  2884  2.4904e-03  8.8139e-04  3.2560e-04  2.4173e-03  4.8986e-04  2.1251e-04  0:02:21 1535
  2885  2.4876e-03  8.7897e-04  3.2459e-04  2.4140e-03  4.8815e-04  2.1164e-04  0:01:52 1534
  2886  2.4840e-03  8.8585e-04  3.2530e-04  2.4100e-03  4.8667e-04  2.1083e-04  0:01:30 1533
  2887  2.4797e-03  8.9728e-04  3.2556e-04  2.4053e-03  4.8532e-04  2.1027e-04  0:01:12 1532
  2888  2.4731e-03  9.0626e-04  3.2937e-04  2.3979e-03  4.8411e-04  2.0994e-04  0:00:57 1531
  2889  2.4674e-03  9.2711e-04  3.2870e-04  2.3914e-03  4.8286e-04  2.0922e-04  0:00:46 1530
  2890  2.4583e-03  9.4699e-04  3.2529e-04  2.3821e-03  4.8151e-04  2.0891e-04  0:05:42 1529
  2891  2.4457e-03  9.3127e-04  3.2614e-04  2.3701e-03  4.8029e-04  2.0871e-04  0:04:34 1528

  iter  continuity  x-velocity  y-velocity      energy           k       omega     time/iter
  2892  2.4342e-03  9.3092e-04  3.2468e-04  2.3584e-03  4.7923e-04  2.0865e-04  0:03:39 1527
  2893  2.4251e-03  9.5757e-04  3.2105e-04  2.3493e-03  4.7820e-04  2.0857e-04  0:02:55 1526
  2894  2.4114e-03  9.7683e-04  3.2163e-04  2.3368e-03  4.7720e-04  2.0776e-04  0:02:20 1525
  2895  2.4026e-03  9.7817e-04  3.2395e-04  2.3285e-03  4.7634e-04  2.0635e-04  0:01:52 1524
  2896  2.3970e-03  9.9484e-04  3.2621e-04  2.3233e-03  4.7560e-04  2.0620e-04  0:01:29 1523
  2897  2.3969e-03  1.0597e-03  3.2970e-04  2.3237e-03  4.7521e-04  2.0644e-04  0:01:11 1522
  2898  2.3915e-03  1.0679e-03  3.3113e-04  2.3178e-03  4.7508e-04  2.0673e-04  0:00:57 1521
  2899  2.3871e-03  1.0523e-03  3.3624e-04  2.3135e-03  4.7520e-04  2.0696e-04  0:00:46 1520
  2900  2.3882e-03  1.0402e-03  3.3791e-04  2.3144e-03  4.7557e-04  2.0718e-04  0:05:40 1519
  2901  2.3952e-03  1.0523e-03  3.3920e-04  2.3203e-03  4.7610e-04  2.0726e-04  0:04:32 1518
  2902  2.3829e-03  1.0096e-03  3.3934e-04  2.3088e-03  4.7675e-04  2.0730e-04  0:03:38 1517

  iter  continuity  x-velocity  y-velocity      energy           k       omega     time/iter
  2903  2.3758e-03  9.6943e-04  3.3357e-04  2.3033e-03  4.7761e-04  2.0702e-04  0:02:54 1516
  2904  2.3744e-03  9.5382e-04  3.3031e-04  2.3025e-03  4.7853e-04  2.0693e-04  0:02:19 1515
  2905  2.3750e-03  9.4057e-04  3.2838e-04  2.3035e-03  4.7950e-04  2.0697e-04  0:01:51 1514
  2906  2.3724e-03  9.2420e-04  3.2490e-04  2.3010e-03  4.8060e-04  2.0676e-04  0:01:29 1513
  2907  2.3715e-03  9.1790e-04  3.2375e-04  2.2998e-03  4.8173e-04  2.0646e-04  0:01:11 1512
  2908  2.3742e-03  9.2082e-04  3.1701e-04  2.3017e-03  4.8288e-04  2.0599e-04  0:00:57 1511
  2909  2.3782e-03  9.5466e-04  3.2188e-04  2.3054e-03  4.8415e-04  2.0536e-04  0:00:45 1510
  2910  2.3826e-03  9.7350e-04  3.2331e-04  2.3101e-03  4.8569e-04  2.0491e-04  0:00:36 1509
  2911  2.3810e-03  9.8350e-04  3.2429e-04  2.3087e-03  4.8712e-04  2.0457e-04  0:05:31 1508
  2912  2.3767e-03  9.4514e-04  3.1823e-04  2.3049e-03  4.8833e-04  2.0383e-04  0:04:24 1507
  2913  2.3788e-03  9.5126e-04  3.1455e-04  2.3077e-03  4.8947e-04  2.0346e-04  0:03:31 1506

  iter  continuity  x-velocity  y-velocity      energy           k       omega     time/iter
  2914  2.3798e-03  9.5134e-04  3.1340e-04  2.3100e-03  4.9061e-04  2.0326e-04  0:02:49 1505
  2915  2.3836e-03  9.6024e-04  3.1640e-04  2.3137e-03  4.9191e-04  2.0300e-04  0:02:15 1504
  2916  2.3889e-03  9.9137e-04  3.1755e-04  2.3193e-03  4.9308e-04  2.0271e-04  0:01:48 1503
  2917  2.3925e-03  1.0227e-03  3.2309e-04  2.3241e-03  4.9406e-04  2.0297e-04  0:01:26 1502
  2918  2.3954e-03  9.9540e-04  3.2451e-04  2.3279e-03  4.9493e-04  2.0304e-04  0:01:09 1501
  2919  2.4033e-03  1.0174e-03  3.2329e-04  2.3361e-03  4.9575e-04  2.0232e-04  0:05:55 1500
  2920  2.4086e-03  1.0208e-03  3.2002e-04  2.3415e-03  4.9652e-04  2.0150e-04  0:04:44 1499
  2921  2.4162e-03  9.9563e-04  3.1917e-04  2.3488e-03  4.9729e-04  2.0117e-04  0:03:47 1498
  2922  2.4273e-03  1.0091e-03  3.2070e-04  2.3588e-03  4.9817e-04  2.0076e-04  0:03:01 1497
  2923  2.4320e-03  9.9707e-04  3.1964e-04  2.3636e-03  4.9922e-04  2.0070e-04  0:02:25 1496
  2924  2.4249e-03  9.0896e-04  3.1509e-04  2.3585e-03  5.0057e-04  2.0079e-04  0:01:56 1495

  iter  continuity  x-velocity  y-velocity      energy           k       omega     time/iter
  2925  2.4279e-03  9.0251e-04  3.1317e-04  2.3624e-03  5.0205e-04  2.0092e-04  0:01:33 1494
  2926  2.4321e-03  9.0005e-04  3.1019e-04  2.3671e-03  5.0367e-04  2.0090e-04  0:01:14 1493
  2927  2.4378e-03  9.0125e-04  3.0622e-04  2.3727e-03  5.0530e-04  2.0072e-04  0:00:59 1492
  2928  2.4427e-03  9.0687e-04  3.0952e-04  2.3780e-03  5.0703e-04  2.0071e-04  0:00:47 1491
  2929  2.4477e-03  9.1210e-04  3.0612e-04  2.3836e-03  5.0849e-04  2.0041e-04  0:05:36 1490
  2930  2.4514e-03  9.1248e-04  3.0584e-04  2.3874e-03  5.0970e-04  2.0029e-04  0:04:29 1489
  2931  2.4557e-03  9.1044e-04  3.0133e-04  2.3921e-03  5.1072e-04  2.0010e-04  0:03:35 1488
  2932  2.4614e-03  9.1809e-04  2.9869e-04  2.3978e-03  5.1169e-04  1.9969e-04  0:02:52 1487
  2933  2.4629e-03  9.1485e-04  2.9997e-04  2.4004e-03  5.1266e-04  1.9927e-04  0:02:17 1486
  2934  2.4669e-03  9.1502e-04  3.0269e-04  2.4044e-03  5.1360e-04  1.9890e-04  0:01:50 1485
  2935  2.4720e-03  9.3275e-04  3.0206e-04  2.4096e-03  5.1439e-04  1.9848e-04  0:01:28 1484

  iter  continuity  x-velocity  y-velocity      energy           k       omega     time/iter
  2936  2.4776e-03  9.6532e-04  3.0168e-04  2.4160e-03  5.1504e-04  1.9793e-04  0:01:10 1483
  2937  2.4787e-03  9.6964e-04  3.0281e-04  2.4183e-03  5.1561e-04  1.9778e-04  0:00:56 1482
  2938  2.4762e-03  9.2579e-04  3.0298e-04  2.4160e-03  5.1617e-04  1.9760e-04  0:00:45 1481
  2939  2.4793e-03  9.4615e-04  3.0200e-04  2.4196e-03  5.1670e-04  1.9724e-04  0:00:36 1480
  2940  2.4807e-03  9.6839e-04  3.0113e-04  2.4218e-03  5.1727e-04  1.9690e-04  0:05:24 1479
  2941  2.4833e-03  9.5393e-04  3.0119e-04  2.4246e-03  5.1781e-04  1.9654e-04  0:04:19 1478
  2942  2.4885e-03  9.5258e-04  3.0798e-04  2.4297e-03  5.1845e-04  1.9603e-04  0:03:27 1477
  2943  2.4928e-03  9.5576e-04  3.1209e-04  2.4332e-03  5.1910e-04  1.9558e-04  0:02:46 1476
  2944  2.4951e-03  9.7324e-04  3.0836e-04  2.4349e-03  5.1968e-04  1.9514e-04  0:02:13 1475
  2945  2.4807e-03  8.8617e-04  3.0473e-04  2.4219e-03  5.2022e-04  1.9444e-04  0:01:46 1474
  2946  2.4764e-03  8.6598e-04  2.9888e-04  2.4186e-03  5.2060e-04  1.9321e-04  0:01:25 1473

  iter  continuity  x-velocity  y-velocity      energy           k       omega     time/iter
  2947  2.4737e-03  8.7165e-04  3.0180e-04  2.4166e-03  5.2106e-04  1.9219e-04  0:01:08 1472
  2948  2.4687e-03  8.7696e-04  3.0062e-04  2.4125e-03  5.2138e-04  1.9177e-04  0:00:54 1471
  2949  2.4634e-03  8.7419e-04  2.9428e-04  2.4077e-03  5.2140e-04  1.9137e-04  0:00:43 1470
  2950  2.4569e-03  8.6871e-04  2.8822e-04  2.4013e-03  5.2121e-04  1.9080e-04  0:05:28 1469
  2951  2.4522e-03  8.6412e-04  2.7956e-04  2.3959e-03  5.2090e-04  1.9053e-04  0:04:23 1468
  2952  2.4453e-03  8.8110e-04  2.7862e-04  2.3888e-03  5.2060e-04  1.9023e-04  0:03:30 1467
  2953  2.4397e-03  8.9629e-04  2.7969e-04  2.3840e-03  5.2021e-04  1.8965e-04  0:02:48 1466
  2954  2.4270e-03  8.8158e-04  2.8185e-04  2.3718e-03  5.1979e-04  1.8920e-04  0:02:14 1465
  2955  2.4144e-03  8.5416e-04  2.7922e-04  2.3601e-03  5.1922e-04  1.8889e-04  0:01:47 1464
  2956  2.4079e-03  8.6596e-04  2.7818e-04  2.3538e-03  5.1850e-04  1.8867e-04  0:01:26 1463
  2957  2.3958e-03  8.5783e-04  2.7817e-04  2.3425e-03  5.1774e-04  1.8833e-04  0:01:09 1462

  iter  continuity  x-velocity  y-velocity      energy           k       omega     time/iter
  2958  2.3859e-03  8.4627e-04  2.8108e-04  2.3327e-03  5.1695e-04  1.8794e-04  0:00:55 1461
  2959  2.3772e-03  8.4855e-04  2.8379e-04  2.3244e-03  5.1617e-04  1.8782e-04  0:05:36 1460
  2960  2.3715e-03  8.7310e-04  2.8470e-04  2.3196e-03  5.1542e-04  1.8744e-04  0:04:28 1459
  2961  2.3618e-03  8.6955e-04  2.8571e-04  2.3104e-03  5.1475e-04  1.8726e-04  0:03:35 1458
  2962  2.3554e-03  8.6844e-04  2.8778e-04  2.3039e-03  5.1414e-04  1.8694e-04  0:02:52 1457
  2963  2.3544e-03  9.0438e-04  2.8488e-04  2.3026e-03  5.1355e-04  1.8652e-04  0:02:17 1456
  2964  2.3460e-03  8.7473e-04  2.8511e-04  2.2936e-03  5.1297e-04  1.8606e-04  0:01:50 1455
  2965  2.3483e-03  9.1020e-04  2.8861e-04  2.2943e-03  5.1245e-04  1.8560e-04  0:01:28 1454
  2966  2.3359e-03  8.8384e-04  2.9037e-04  2.2820e-03  5.1188e-04  1.8504e-04  0:01:10 1453
  2967  2.3185e-03  7.8907e-04  2.8839e-04  2.2663e-03  5.1127e-04  1.8457e-04  0:00:56 1452
  2968  2.3065e-03  7.5798e-04  2.8581e-04  2.2560e-03  5.1065e-04  1.8405e-04  0:00:45 1451

  iter  continuity  x-velocity  y-velocity      energy           k       omega     time/iter
  2969  2.2992e-03  7.5249e-04  2.8004e-04  2.2492e-03  5.0997e-04  1.8304e-04  0:00:36 1450
  2970  2.2918e-03  7.4337e-04  2.7074e-04  2.2416e-03  5.0920e-04  1.8149e-04  0:05:18 1449
  2971  2.2856e-03  7.3936e-04  2.6139e-04  2.2349e-03  5.0837e-04  1.8039e-04  0:04:15 1448
  2972  2.2784e-03  7.4274e-04  2.6056e-04  2.2273e-03  5.0755e-04  1.7982e-04  0:03:24 1447
  2973  2.2680e-03  7.2922e-04  2.6021e-04  2.2178e-03  5.0675e-04  1.7932e-04  0:02:43 1446
  2974  2.2603e-03  7.2578e-04  2.6120e-04  2.2103e-03  5.0596e-04  1.7875e-04  0:02:10 1445
  2975  2.2520e-03  7.2653e-04  2.6314e-04  2.2019e-03  5.0518e-04  1.7818e-04  0:01:44 1444
  2976  2.2462e-03  7.4481e-04  2.6267e-04  2.1960e-03  5.0438e-04  1.7751e-04  0:01:23 1443
  2977  2.2420e-03  7.7827e-04  2.6233e-04  2.1911e-03  5.0356e-04  1.7683e-04  0:01:06 1442
  2978  2.2317e-03  7.8511e-04  2.6456e-04  2.1815e-03  5.0273e-04  1.7633e-04  0:00:53 1441
  2979  2.2221e-03  7.7591e-04  2.6736e-04  2.1720e-03  5.0191e-04  1.7573e-04  0:00:42 1440

  iter  continuity  x-velocity  y-velocity      energy           k       omega     time/iter
  2980  2.2149e-03  7.9242e-04  2.6779e-04  2.1651e-03  5.0115e-04  1.7508e-04  0:05:22 1439
  2981  2.2056e-03  8.1216e-04  2.6829e-04  2.1561e-03  5.0029e-04  1.7463e-04  0:04:17 1438
  2982  2.1923e-03  8.0828e-04  2.6777e-04  2.1434e-03  4.9945e-04  1.7404e-04  0:03:26 1437
  2983  2.1831e-03  8.0291e-04  2.6667e-04  2.1344e-03  4.9865e-04  1.7313e-04  0:02:44 1436
  2984  2.1779e-03  8.3618e-04  2.6617e-04  2.1291e-03  4.9791e-04  1.7228e-04  0:02:11 1435
  2985  2.1677e-03  8.5276e-04  2.6856e-04  2.1186e-03  4.9723e-04  1.7152e-04  0:01:45 1434
  2986  2.1585e-03  8.2575e-04  2.6956e-04  2.1094e-03  4.9653e-04  1.7077e-04  0:01:24 1433
  2987  2.1596e-03  8.6999e-04  2.7609e-04  2.1089e-03  4.9585e-04  1.6992e-04  0:01:07 1432
  2988  2.1546e-03  8.8187e-04  2.7704e-04  2.1030e-03  4.9513e-04  1.6897e-04  0:00:54 1431
  2989  2.1328e-03  8.3145e-04  2.7253e-04  2.0821e-03  4.9436e-04  1.6799e-04  0:00:43 1430
  2990  2.1204e-03  8.0173e-04  2.6113e-04  2.0700e-03  4.9358e-04  1.6691e-04  0:05:20 1429

  iter  continuity  x-velocity  y-velocity      energy           k       omega     time/iter
  2991  2.1061e-03  7.9102e-04  2.6357e-04  2.0562e-03  4.9280e-04  1.6598e-04  0:04:16 1428
  2992  2.0840e-03  7.3032e-04  2.5513e-04  2.0353e-03  4.9205e-04  1.6509e-04  0:03:25 1427
  2993  2.0695e-03  6.9930e-04  2.5176e-04  2.0210e-03  4.9125e-04  1.6356e-04  0:02:44 1426
  2994  2.0541e-03  7.0165e-04  2.4872e-04  2.0062e-03  4.9050e-04  1.6218e-04  0:02:11 1425
  2995  2.0395e-03  7.1125e-04  2.4344e-04  1.9919e-03  4.8976e-04  1.6122e-04  0:01:45 1424
  2996  2.0210e-03  6.8950e-04  2.4027e-04  1.9733e-03  4.8907e-04  1.6035e-04  0:01:24 1423
  2997  2.0028e-03  6.7795e-04  2.3520e-04  1.9549e-03  4.8840e-04  1.5957e-04  0:01:07 1422
  2998  1.9884e-03  6.9134e-04  2.3462e-04  1.9399e-03  4.8770e-04  1.5882e-04  0:00:53 1421
  2999  1.9704e-03  6.9190e-04  2.3707e-04  1.9215e-03  4.8697e-04  1.5813e-04  0:00:43 1420
  3000  1.9545e-03  6.8807e-04  2.3998e-04  1.9059e-03  4.8618e-04  1.5747e-04  0:00:34 1419
  3001  1.9364e-03  6.8020e-04  2.4205e-04  1.8875e-03  4.8538e-04  1.5689e-04  0:05:11 1418

  iter  continuity  x-velocity  y-velocity      energy           k       omega     time/iter
  3002  1.9193e-03  6.9177e-04  2.3913e-04  1.8699e-03  4.8458e-04  1.5625e-04  0:04:09 1417
  3003  1.9044e-03  7.1836e-04  2.3786e-04  1.8547e-03  4.8380e-04  1.5561e-04  0:03:19 1416
  3004  1.8852e-03  7.2841e-04  2.3992e-04  1.8358e-03  4.8305e-04  1.5493e-04  0:02:39 1415
  3005  1.8673e-03  7.2095e-04  2.4278e-04  1.8181e-03  4.8239e-04  1.5424e-04  0:02:07 1414
  3006  1.8499e-03  7.1736e-04  2.4675e-04  1.8002e-03  4.8178e-04  1.5337e-04  0:01:42 1413
  3007  1.8346e-03  7.3658e-04  2.4728e-04  1.7847e-03  4.8126e-04  1.5245e-04  0:01:21 1412
  3008  1.8189e-03  7.4859e-04  2.4546e-04  1.7687e-03  4.8086e-04  1.5178e-04  0:01:05 1411
  3009  1.8088e-03  7.6561e-04  2.5008e-04  1.7580e-03  4.8049e-04  1.5114e-04  0:00:52 1410
  3010  1.7953e-03  7.7342e-04  2.5536e-04  1.7440e-03  4.8019e-04  1.5048e-04  0:05:23 1409
  3011  1.7858e-03  7.8165e-04  2.5405e-04  1.7327e-03  4.7989e-04  1.4970e-04  0:04:18 1408
  3012  1.7778e-03  8.1277e-04  2.5401e-04  1.7237e-03  4.7956e-04  1.4897e-04  0:03:27 1407

  iter  continuity  x-velocity  y-velocity      energy           k       omega     time/iter
  3013  1.7454e-03  7.1936e-04  2.5340e-04  1.6924e-03  4.7927e-04  1.4838e-04  0:02:45 1406
  3014  1.7256e-03  6.7899e-04  2.4795e-04  1.6741e-03  4.7900e-04  1.4777e-04  0:02:12 1405
  3015  1.7129e-03  6.7548e-04  2.4585e-04  1.6620e-03  4.7870e-04  1.4711e-04  0:01:46 1404
  3016  1.6994e-03  6.7229e-04  2.4492e-04  1.6489e-03  4.7846e-04  1.4660e-04  0:01:24 1403
  3017  1.6870e-03  6.7267e-04  2.3975e-04  1.6370e-03  4.7816e-04  1.4603e-04  0:01:07 1402
  3018  1.6761e-03  6.8072e-04  2.3506e-04  1.6260e-03  4.7781e-04  1.4510e-04  0:00:54 1401
  3019  1.6664e-03  6.9066e-04  2.3137e-04  1.6159e-03  4.7741e-04  1.4409e-04  0:00:43 1400
  3020  1.6562e-03  6.8737e-04  2.2866e-04  1.6053e-03  4.7701e-04  1.4312e-04  0:05:14 1399
  3021  1.6497e-03  6.8419e-04  2.2936e-04  1.5981e-03  4.7656e-04  1.4235e-04  0:04:11 1398
  3022  1.6431e-03  7.0254e-04  2.3108e-04  1.5911e-03  4.7606e-04  1.4151e-04  0:03:21 1397
  3023  1.6393e-03  7.0154e-04  2.3064e-04  1.5874e-03  4.7548e-04  1.4077e-04  0:02:41 1396

  iter  continuity  x-velocity  y-velocity      energy           k       omega     time/iter
  3024  1.6354e-03  7.3025e-04  2.3054e-04  1.5824e-03  4.7480e-04  1.4021e-04  0:02:08 1395
  3025  1.6328e-03  7.4234e-04  2.3068e-04  1.5797e-03  4.7401e-04  1.3958e-04  0:01:43 1394
  3026  1.6190e-03  7.1085e-04  2.2963e-04  1.5666e-03  4.7312e-04  1.3888e-04  0:01:22 1393
  3027  1.6122e-03  6.9016e-04  2.2751e-04  1.5605e-03  4.7215e-04  1.3812e-04  0:01:06 1392
  3028  1.6024e-03  6.6537e-04  2.2885e-04  1.5517e-03  4.7114e-04  1.3749e-04  0:00:52 1391
  3029  1.5961e-03  6.6637e-04  2.3111e-04  1.5458e-03  4.7009e-04  1.3685e-04  0:05:20 1390
  3030  1.5940e-03  6.8324e-04  2.3196e-04  1.5440e-03  4.6902e-04  1.3617e-04  0:04:16 1389
  3031  1.5969e-03  7.2767e-04  2.3153e-04  1.5476e-03  4.6798e-04  1.3555e-04  0:03:24 1388
  3032  1.5938e-03  7.3882e-04  2.3210e-04  1.5444e-03  4.6696e-04  1.3495e-04  0:02:43 1387
  3033  1.5919e-03  7.2171e-04  2.3334e-04  1.5425e-03  4.6601e-04  1.3442e-04  0:02:11 1386
  3034  1.5944e-03  7.1095e-04  2.3423e-04  1.5447e-03  4.6512e-04  1.3371e-04  0:01:44 1385

  iter  continuity  x-velocity  y-velocity      energy           k       omega     time/iter
  3035  1.6041e-03  7.4628e-04  2.3539e-04  1.5538e-03  4.6425e-04  1.3328e-04  0:01:24 1384
  3036  1.6052e-03  7.0309e-04  2.3597e-04  1.5540e-03  4.6339e-04  1.3310e-04  0:01:07 1383
  3037  1.6243e-03  7.6472e-04  2.3848e-04  1.5716e-03  4.6250e-04  1.3279e-04  0:00:53 1382
  3038  1.6221e-03  7.3877e-04  2.4224e-04  1.5700e-03  4.6157e-04  1.3238e-04  0:00:43 1381
  3039  1.6183e-03  6.4619e-04  2.4076e-04  1.5680e-03  4.6068e-04  1.3192e-04  0:00:34 1380
  3040  1.6234e-03  6.2211e-04  2.4122e-04  1.5745e-03  4.5980e-04  1.3137e-04  0:05:03 1379
  3041  1.6337e-03  6.0693e-04  2.3928e-04  1.5854e-03  4.5902e-04  1.3086e-04  0:04:02 1378
  3042  1.6478e-03  6.0933e-04  2.3655e-04  1.5997e-03  4.5830e-04  1.3043e-04  0:03:14 1377
  3043  1.6616e-03  5.9982e-04  2.3764e-04  1.6136e-03  4.5762e-04  1.3005e-04  0:02:35 1376
  3044  1.6792e-03  6.0300e-04  2.3242e-04  1.6313e-03  4.5703e-04  1.2968e-04  0:02:04 1375
  3045  1.6983e-03  5.9783e-04  2.3169e-04  1.6501e-03  4.5648e-04  1.2933e-04  0:01:39 1374

  iter  continuity  x-velocity  y-velocity      energy           k       omega     time/iter
  3046  1.7182e-03  6.0913e-04  2.3364e-04  1.6700e-03  4.5599e-04  1.2902e-04  0:01:19 1373
  3047  1.7380e-03  6.2391e-04  2.3521e-04  1.6906e-03  4.5557e-04  1.2875e-04  0:01:03 1372
  3048  1.7599e-03  6.4151e-04  2.3577e-04  1.7132e-03  4.5552e-04  1.2851e-04  0:05:25 1371
  3049  1.7787e-03  6.2194e-04  2.3496e-04  1.7324e-03  4.5591e-04  1.2833e-04  0:04:20 1370
  3050  1.8016e-03  6.2506e-04  2.2885e-04  1.7553e-03  4.5661e-04  1.2837e-04  0:03:28 1369
  3051  1.8254e-03  6.3614e-04  2.2877e-04  1.7791e-03  4.5742e-04  1.2834e-04  0:02:46 1368
  3052  1.8473e-03  6.5261e-04  2.3003e-04  1.8015e-03  4.5832e-04  1.2790e-04  0:02:13 1367
  3053  1.8727e-03  6.7831e-04  2.3298e-04  1.8276e-03  4.5930e-04  1.2754e-04  0:01:46 1366
  3054  1.8935e-03  6.7674e-04  2.3434e-04  1.8489e-03  4.6031e-04  1.2727e-04  0:01:25 1365
  3055  1.9154e-03  6.7426e-04  2.3408e-04  1.8715e-03  4.6133e-04  1.2715e-04  0:01:08 1364
  3056  1.9393e-03  6.9069e-04  2.3596e-04  1.8957e-03  4.6245e-04  1.2691e-04  0:00:54 1363

  iter  continuity  x-velocity  y-velocity      energy           k       omega     time/iter
  3057  1.9645e-03  7.2191e-04  2.3680e-04  1.9211e-03  4.6358e-04  1.2711e-04  0:00:43 1362
  3058  1.9866e-03  7.2154e-04  2.3681e-04  1.9434e-03  4.6480e-04  1.2738e-04  0:05:07 1361
  3059  2.0189e-03  7.7239e-04  2.3953e-04  1.9753e-03  4.6607e-04  1.2766e-04  0:04:05 1360
  3060  2.0452e-03  8.1004e-04  2.4230e-04  2.0016e-03  4.6735e-04  1.2794e-04  0:03:16 1359
  3061  2.0606e-03  7.7656e-04  2.4358e-04  2.0175e-03  4.6865e-04  1.2806e-04  0:02:37 1358
  3062  2.0793e-03  7.1522e-04  2.4079e-04  2.0371e-03  4.6999e-04  1.2814e-04  0:02:05 1357
  3063  2.1057e-03  7.3127e-04  2.4226e-04  2.0636e-03  4.7137e-04  1.2826e-04  0:01:40 1356
  3064  2.1323e-03  7.5547e-04  2.4450e-04  2.0897e-03  4.7275e-04  1.2844e-04  0:01:20 1355
  3065  2.1460e-03  7.2076e-04  2.4350e-04  2.1042e-03  4.7416e-04  1.2848e-04  0:01:04 1354
  3066  2.1605e-03  6.4441e-04  2.3911e-04  2.1200e-03  4.7554e-04  1.2875e-04  0:00:51 1353
  3067  2.1808e-03  6.3224e-04  2.3863e-04  2.1413e-03  4.7684e-04  1.2909e-04  0:00:41 1352

  iter  continuity  x-velocity  y-velocity      energy           k       omega     time/iter
  3068  2.2019e-03  6.2354e-04  2.3869e-04  2.1627e-03  4.7812e-04  1.2939e-04  0:05:03 1351
  3069  2.2235e-03  6.1881e-04  2.3822e-04  2.1845e-03  4.7936e-04  1.2968e-04  0:04:02 1350
  3070  2.2454e-03  6.1659e-04  2.3978e-04  2.2063e-03  4.8056e-04  1.2991e-04  0:03:14 1349
  3071  2.2663e-03  6.1024e-04  2.4028e-04  2.2270e-03  4.8163e-04  1.3000e-04  0:02:35 1348
  3072  2.2847e-03  5.9837e-04  2.4009e-04  2.2456e-03  4.8265e-04  1.2988e-04  0:02:04 1347
  3073  2.3042e-03  6.0815e-04  2.3815e-04  2.2652e-03  4.8358e-04  1.2993e-04  0:01:39 1346
  3074  2.3227e-03  6.2438e-04  2.3588e-04  2.2836e-03  4.8438e-04  1.2999e-04  0:01:19 1345
  3075  2.3393e-03  6.3426e-04  2.3356e-04  2.3001e-03  4.8500e-04  1.2990e-04  0:01:03 1344
  3076  2.3553e-03  6.4451e-04  2.3165e-04  2.3157e-03  4.8548e-04  1.2974e-04  0:00:51 1343
  3077  2.3685e-03  6.5257e-04  2.3263e-04  2.3287e-03  4.8584e-04  1.2955e-04  0:00:40 1342
  3078  2.3766e-03  6.4463e-04  2.3388e-04  2.3371e-03  4.8609e-04  1.2934e-04  0:05:00 1341

  iter  continuity  x-velocity  y-velocity      energy           k       omega     time/iter
  3079  2.3855e-03  6.5336e-04  2.3403e-04  2.3464e-03  4.8627e-04  1.2920e-04  0:04:00 1340
  3080  2.3921e-03  6.5162e-04  2.3406e-04  2.3531e-03  4.8645e-04  1.2915e-04  0:03:12 1339
  3081  2.3973e-03  6.4718e-04  2.3229e-04  2.3583e-03  4.8658e-04  1.2916e-04  0:02:34 1338
  3082  2.4018e-03  6.6422e-04  2.3161e-04  2.3628e-03  4.8664e-04  1.2919e-04  0:02:03 1337
  3083  2.4020e-03  6.8075e-04  2.3254e-04  2.3634e-03  4.8661e-04  1.2922e-04  0:01:38 1336
  3084  2.4017e-03  6.7811e-04  2.3402e-04  2.3637e-03  4.8646e-04  1.2962e-04  0:01:18 1335
  3085  2.4013e-03  6.8516e-04  2.3581e-04  2.3635e-03  4.8627e-04  1.3000e-04  0:01:03 1334
  3086  2.3993e-03  6.9920e-04  2.3667e-04  2.3614e-03  4.8604e-04  1.3045e-04  0:00:50 1333
  3087  2.3972e-03  7.3372e-04  2.3677e-04  2.3595e-03  4.8572e-04  1.3079e-04  0:00:40 1332
  3088  2.3931e-03  7.4664e-04  2.3646e-04  2.3555e-03  4.8530e-04  1.3103e-04  0:04:58 1331
  3089  2.3896e-03  7.7714e-04  2.3771e-04  2.3520e-03  4.8480e-04  1.3124e-04  0:03:58 1330

  iter  continuity  x-velocity  y-velocity      energy           k       omega     time/iter
  3090  2.3865e-03  8.0412e-04  2.3996e-04  2.3488e-03  4.8419e-04  1.3139e-04  0:03:11 1329
  3091  2.3829e-03  8.3593e-04  2.3842e-04  2.3441e-03  4.8354e-04  1.3144e-04  0:02:32 1328
  3092  2.3786e-03  8.6352e-04  2.4128e-04  2.3392e-03  4.8284e-04  1.3146e-04  0:02:02 1327
  3093  2.3588e-03  8.1857e-04  2.3761e-04  2.3202e-03  4.8210e-04  1.3178e-04  0:01:37 1326
  3094  2.3419e-03  7.6392e-04  2.3240e-04  2.3041e-03  4.8133e-04  1.3207e-04  0:01:18 1325
  3095  2.3331e-03  7.7000e-04  2.3169e-04  2.2955e-03  4.8054e-04  1.3234e-04  0:01:02 1324
  3096  2.3208e-03  7.6954e-04  2.3021e-04  2.2831e-03  4.7972e-04  1.3253e-04  0:00:50 1323
  3097  2.3020e-03  7.1808e-04  2.2982e-04  2.2648e-03  4.7891e-04  1.3268e-04  0:00:40 1322
  3098  2.2859e-03  6.7579e-04  2.2762e-04  2.2493e-03  4.7814e-04  1.3263e-04  0:00:32 1321
  3099  2.2713e-03  6.6067e-04  2.2380e-04  2.2350e-03  4.7742e-04  1.3288e-04  0:04:49 1320
  3100  2.2587e-03  6.5919e-04  2.2112e-04  2.2224e-03  4.7669e-04  1.3321e-04  0:03:51 1319

  iter  continuity  x-velocity  y-velocity      energy           k       omega     time/iter
  3101  2.2471e-03  6.6271e-04  2.2332e-04  2.2105e-03  4.7594e-04  1.3354e-04  0:03:05 1318
  3102  2.2365e-03  6.6903e-04  2.2344e-04  2.1996e-03  4.7515e-04  1.3381e-04  0:02:28 1317
  3103  2.2271e-03  6.7231e-04  2.2337e-04  2.1897e-03  4.7434e-04  1.3404e-04  0:01:58 1316
  3104  2.2178e-03  6.8228e-04  2.2652e-04  2.1801e-03  4.7338e-04  1.3428e-04  0:01:34 1315
  3105  2.2077e-03  6.8523e-04  2.2677e-04  2.1701e-03  4.7232e-04  1.3460e-04  0:01:16 1314
  3106  2.2000e-03  6.9861e-04  2.2484e-04  2.1624e-03  4.7119e-04  1.3498e-04  0:01:00 1313
  3107  2.1930e-03  7.0843e-04  2.2450e-04  2.1551e-03  4.6992e-04  1.3530e-04  0:00:48 1312
  3108  2.1878e-03  7.2684e-04  2.2020e-04  2.1497e-03  4.6852e-04  1.3553e-04  0:00:39 1311
  3109  2.1847e-03  7.5481e-04  2.1819e-04  2.1464e-03  4.6700e-04  1.3575e-04  0:04:53 1310
  3110  2.1791e-03  7.7210e-04  2.1772e-04  2.1411e-03  4.6536e-04  1.3603e-04  0:03:54 1309
  3111  2.1744e-03  7.6916e-04  2.1746e-04  2.1365e-03  4.6364e-04  1.3606e-04  0:03:07 1308

  iter  continuity  x-velocity  y-velocity      energy           k       omega     time/iter
  3112  2.1699e-03  7.5752e-04  2.1910e-04  2.1321e-03  4.6180e-04  1.3605e-04  0:02:30 1307
  3113  2.1684e-03  7.6222e-04  2.2132e-04  2.1308e-03  4.5986e-04  1.3621e-04  0:02:00 1306
  3114  2.1709e-03  7.8777e-04  2.2251e-04  2.1333e-03  4.5778e-04  1.3626e-04  0:01:36 1305
  3115  2.1714e-03  7.9104e-04  2.2212e-04  2.1341e-03  4.5562e-04  1.3585e-04  0:01:16 1304
  3116  2.1785e-03  8.0213e-04  2.2176e-04  2.1411e-03  4.5338e-04  1.3560e-04  0:01:01 1303
  3117  2.1861e-03  8.0662e-04  2.2673e-04  2.1484e-03  4.5107e-04  1.3549e-04  0:00:49 1302
  3118  2.1962e-03  8.1276e-04  2.2937e-04  2.1583e-03  4.4869e-04  1.3542e-04  0:00:39 1301
  3119  2.2085e-03  8.2490e-04  2.3275e-04  2.1700e-03  4.4622e-04  1.3542e-04  0:00:31 1300
  3120  2.2262e-03  8.5696e-04  2.3517e-04  2.1873e-03  4.4364e-04  1.3535e-04  0:04:45 1299
  3121  2.2323e-03  8.1243e-04  2.3469e-04  2.1945e-03  4.4100e-04  1.3529e-04  0:03:48 1298
  3122  2.2456e-03  7.8337e-04  2.3193e-04  2.2090e-03  4.3832e-04  1.3528e-04  0:03:02 1297

  iter  continuity  x-velocity  y-velocity      energy           k       omega     time/iter
[...]
  3923  1.3330e-03  2.5974e-04  1.2674e-04  1.2954e-03  2.3554e-04  9.4499e-05  0:01:32  496
  3924  1.3390e-03  2.6157e-04  1.2673e-04  1.3016e-03  2.3628e-04  9.4353e-05  0:01:13  495
  3925  1.3456e-03  2.6366e-04  1.2679e-04  1.3084e-03  2.3703e-04  9.4188e-05  0:00:58  494

  iter  continuity  x-velocity  y-velocity      energy           k       omega     time/iter
  3926  1.3527e-03  2.6500e-04  1.2671e-04  1.3157e-03  2.3778e-04  9.4006e-05  0:00:47  493
  3927  1.3601e-03  2.6598e-04  1.2656e-04  1.3234e-03  2.3857e-04  9.3812e-05  0:00:37  492
  3928  1.3679e-03  2.6771e-04  1.2634e-04  1.3314e-03  2.3936e-04  9.3595e-05  0:00:30  491
  3929  1.3762e-03  2.7178e-04  1.2579e-04  1.3399e-03  2.4018e-04  9.3361e-05  0:00:24  490
  3930  1.3848e-03  2.7647e-04  1.2530e-04  1.3487e-03  2.4104e-04  9.3098e-05  0:00:19  489
  3931  1.3936e-03  2.7757e-04  1.2495e-04  1.3579e-03  2.4196e-04  9.2826e-05  0:00:15  488
  3932  1.4029e-03  2.7810e-04  1.2465e-04  1.3674e-03  2.4288e-04  9.2542e-05  0:01:49  487
  3933  1.4128e-03  2.7806e-04  1.2480e-04  1.3775e-03  2.4381e-04  9.2296e-05  0:01:27  486
  3934  1.4233e-03  2.7851e-04  1.2482e-04  1.3883e-03  2.4476e-04  9.2075e-05  0:01:10  485
  3935  1.4346e-03  2.7954e-04  1.2554e-04  1.3998e-03  2.4571e-04  9.1865e-05  0:00:56  484
  3936  1.4466e-03  2.8073e-04  1.2605e-04  1.4121e-03  2.4669e-04  9.1655e-05  0:00:44  483

  iter  continuity  x-velocity  y-velocity      energy           k       omega     time/iter
  3937  1.4594e-03  2.8195e-04  1.2655e-04  1.4251e-03  2.4766e-04  9.1446e-05  0:00:36  482
  3938  1.4727e-03  2.8509e-04  1.2690e-04  1.4387e-03  2.4866e-04  9.1222e-05  0:00:28  481
  3939  1.4866e-03  2.8956e-04  1.2692e-04  1.4529e-03  2.4964e-04  9.0994e-05  0:00:23  480
  3940  1.5009e-03  2.9243e-04  1.2670e-04  1.4674e-03  2.5062e-04  9.0746e-05  0:00:18  479
  3941  1.5155e-03  2.9219e-04  1.2603e-04  1.4824e-03  2.5156e-04  9.0481e-05  0:00:14  478
  3942  1.5308e-03  2.9044e-04  1.2536e-04  1.4979e-03  2.5247e-04  9.0198e-05  0:00:12  477
  3943  1.5466e-03  2.9491e-04  1.2490e-04  1.5139e-03  2.5338e-04  8.9941e-05  0:01:44  476
  3944  1.5625e-03  2.9726e-04  1.2449e-04  1.5300e-03  2.5427e-04  8.9718e-05  0:01:23  475
  3945  1.5783e-03  2.9282e-04  1.2417e-04  1.5461e-03  2.5516e-04  8.9501e-05  0:01:07  474
  3946  1.5944e-03  2.8892e-04  1.2383e-04  1.5624e-03  2.5606e-04  8.9305e-05  0:00:53  473
  3947  1.6106e-03  2.8503e-04  1.2376e-04  1.5787e-03  2.5699e-04  8.9128e-05  0:00:42  472

  iter  continuity  x-velocity  y-velocity      energy           k       omega     time/iter
  3948  1.6269e-03  2.8188e-04  1.2392e-04  1.5953e-03  2.5793e-04  8.8944e-05  0:00:34  471
  3949  1.6434e-03  2.8063e-04  1.2396e-04  1.6120e-03  2.5888e-04  8.8768e-05  0:00:27  470
  3950  1.6601e-03  2.7857e-04  1.2390e-04  1.6288e-03  2.5982e-04  8.8561e-05  0:00:22  469
  3951  1.6768e-03  2.7732e-04  1.2394e-04  1.6457e-03  2.6071e-04  8.8316e-05  0:00:17  468
  3952  1.6937e-03  2.7773e-04  1.2417e-04  1.6628e-03  2.6156e-04  8.8047e-05  0:00:14  467
  3953  1.7106e-03  2.7819e-04  1.2416e-04  1.6798e-03  2.6234e-04  8.7733e-05  0:01:44  466
  3954  1.7275e-03  2.7934e-04  1.2420e-04  1.6969e-03  2.6307e-04  8.7401e-05  0:01:23  465
  3955  1.7442e-03  2.7772e-04  1.2413e-04  1.7138e-03  2.6376e-04  8.7024e-05  0:01:06  464
  3956  1.7610e-03  2.7680e-04  1.2375e-04  1.7307e-03  2.6436e-04  8.6618e-05  0:00:53  463
  3957  1.7776e-03  2.7748e-04  1.2328e-04  1.7475e-03  2.6491e-04  8.6180e-05  0:00:42  462
  3958  1.7940e-03  2.7858e-04  1.2291e-04  1.7641e-03  2.6537e-04  8.5708e-05  0:00:34  461

  iter  continuity  x-velocity  y-velocity      energy           k       omega     time/iter
  3959  1.8102e-03  2.7863e-04  1.2271e-04  1.7804e-03  2.6577e-04  8.5219e-05  0:00:27  460
  3960  1.8263e-03  2.7882e-04  1.2251e-04  1.7966e-03  2.6610e-04  8.4723e-05  0:00:22  459
  3961  1.8422e-03  2.7942e-04  1.2237e-04  1.8127e-03  2.6640e-04  8.4229e-05  0:00:17  458
  3962  1.8579e-03  2.8200e-04  1.2223e-04  1.8285e-03  2.6665e-04  8.3730e-05  0:00:14  457
  3963  1.8734e-03  2.8285e-04  1.2180e-04  1.8441e-03  2.6683e-04  8.3246e-05  0:01:42  456
  3964  1.8885e-03  2.8541e-04  1.2141e-04  1.8593e-03  2.6693e-04  8.2793e-05  0:01:22  455
  3965  1.9034e-03  2.8631e-04  1.2097e-04  1.8742e-03  2.6695e-04  8.2363e-05  0:01:05  454
  3966  1.9181e-03  2.8524e-04  1.2049e-04  1.8890e-03  2.6689e-04  8.1935e-05  0:00:52  453
  3967  1.9326e-03  2.8614e-04  1.1993e-04  1.9037e-03  2.6678e-04  8.1535e-05  0:00:41  452
  3968  1.9470e-03  2.8536e-04  1.1922e-04  1.9181e-03  2.6666e-04  8.1161e-05  0:00:33  451
  3969  1.9613e-03  2.8295e-04  1.1854e-04  1.9325e-03  2.6646e-04  8.0791e-05  0:00:26  450

  iter  continuity  x-velocity  y-velocity      energy           k       omega     time/iter
  3970  1.9753e-03  2.7940e-04  1.1801e-04  1.9465e-03  2.6624e-04  8.0423e-05  0:00:21  449
  3971  1.9888e-03  2.8026e-04  1.1758e-04  1.9600e-03  2.6595e-04  8.0057e-05  0:00:17  448
  3972  2.0018e-03  2.8122e-04  1.1721e-04  1.9731e-03  2.6559e-04  7.9698e-05  0:00:13  447
  3973  2.0145e-03  2.8131e-04  1.1686e-04  1.9858e-03  2.6517e-04  7.9345e-05  0:01:40  446
  3974  2.0268e-03  2.8007e-04  1.1657e-04  1.9981e-03  2.6465e-04  7.8997e-05  0:01:20  445
  3975  2.0387e-03  2.8076e-04  1.1644e-04  2.0101e-03  2.6408e-04  7.8643e-05  0:01:04  444
  3976  2.0502e-03  2.7873e-04  1.1568e-04  2.0216e-03  2.6344e-04  7.8276e-05  0:00:51  443
  3977  2.0611e-03  2.7576e-04  1.1473e-04  2.0325e-03  2.6273e-04  7.7893e-05  0:00:41  442
  3978  2.0717e-03  2.7465e-04  1.1397e-04  2.0430e-03  2.6196e-04  7.7501e-05  0:00:32  441
  3979  2.0818e-03  2.7514e-04  1.1322e-04  2.0531e-03  2.6110e-04  7.7098e-05  0:00:26  440
  3980  2.0913e-03  2.7368e-04  1.1253e-04  2.0626e-03  2.6018e-04  7.6684e-05  0:00:21  439

  iter  continuity  x-velocity  y-velocity      energy           k       omega     time/iter
  3981  2.1003e-03  2.7277e-04  1.1218e-04  2.0716e-03  2.5919e-04  7.6284e-05  0:01:44  438
  3982  2.1089e-03  2.7328e-04  1.1174e-04  2.0801e-03  2.5815e-04  7.5880e-05  0:01:23  437
  3983  2.1169e-03  2.7352e-04  1.1122e-04  2.0882e-03  2.5705e-04  7.5479e-05  0:01:06  436
  3984  2.1245e-03  2.7250e-04  1.1079e-04  2.0958e-03  2.5588e-04  7.5119e-05  0:00:53  435
  3985  2.1317e-03  2.7173e-04  1.1024e-04  2.1029e-03  2.5468e-04  7.4766e-05  0:00:42  434
  3986  2.1385e-03  2.7085e-04  1.0974e-04  2.1097e-03  2.5341e-04  7.4422e-05  0:00:34  433
  3987  2.1450e-03  2.7078e-04  1.0966e-04  2.1162e-03  2.5210e-04  7.4076e-05  0:00:27  432
  3988  2.1509e-03  2.6926e-04  1.0915e-04  2.1221e-03  2.5073e-04  7.3710e-05  0:00:21  431
  3989  2.1566e-03  2.6849e-04  1.0871e-04  2.1277e-03  2.4928e-04  7.3324e-05  0:00:17  430
  3990  2.1619e-03  2.6711e-04  1.0804e-04  2.1330e-03  2.4778e-04  7.2921e-05  0:00:14  429
  3991  2.1669e-03  2.6766e-04  1.0702e-04  2.1379e-03  2.4622e-04  7.2509e-05  0:01:37  428

  iter  continuity  x-velocity  y-velocity      energy           k       omega     time/iter
  3992  2.1713e-03  2.6774e-04  1.0625e-04  2.1423e-03  2.4462e-04  7.2089e-05  0:01:17  427
  3993  2.1751e-03  2.6801e-04  1.0529e-04  2.1461e-03  2.4298e-04  7.1667e-05  0:01:01  426
  3994  2.1788e-03  2.6817e-04  1.0438e-04  2.1497e-03  2.4129e-04  7.1265e-05  0:00:49  425
  3995  2.1821e-03  2.6776e-04  1.0341e-04  2.1530e-03  2.3956e-04  7.0875e-05  0:00:39  424
  3996  2.1849e-03  2.6832e-04  1.0296e-04  2.1558e-03  2.3778e-04  7.0491e-05  0:00:31  423
  3997  2.1874e-03  2.7048e-04  1.0258e-04  2.1582e-03  2.3595e-04  7.0120e-05  0:00:25  422
  3998  2.1896e-03  2.7274e-04  1.0169e-04  2.1603e-03  2.3406e-04  6.9739e-05  0:00:20  421
  3999  2.1912e-03  2.7386e-04  1.0082e-04  2.1619e-03  2.3212e-04  6.9387e-05  0:00:16  420
  4000  2.1926e-03  2.7757e-04  1.0005e-04  2.1633e-03  2.3013e-04  6.9089e-05  0:00:13  419
  4001  2.1937e-03  2.7805e-04  9.9285e-05  2.1643e-03  2.2811e-04  6.8828e-05  0:01:34  418
  4002  2.1943e-03  2.7621e-04  9.8646e-05  2.1648e-03  2.2606e-04  6.8593e-05  0:01:15  417

  iter  continuity  x-velocity  y-velocity      energy           k       omega     time/iter
  4003  2.1943e-03  2.7420e-04  9.8403e-05  2.1648e-03  2.2399e-04  6.8391e-05  0:01:00  416
  4004  2.1942e-03  2.7558e-04  9.8129e-05  2.1646e-03  2.2190e-04  6.8199e-05  0:00:48  415
  4005  2.1936e-03  2.7364e-04  9.7460e-05  2.1640e-03  2.1977e-04  6.8021e-05  0:00:38  414
  4006  2.1923e-03  2.6991e-04  9.6880e-05  2.1626e-03  2.1762e-04  6.7840e-05  0:00:30  413
  4007  2.1906e-03  2.6759e-04  9.6252e-05  2.1609e-03  2.1545e-04  6.7674e-05  0:00:24  412
  4008  2.1886e-03  2.6716e-04  9.6177e-05  2.1588e-03  2.1326e-04  6.7517e-05  0:00:19  411
  4009  2.1859e-03  2.6505e-04  9.6102e-05  2.1561e-03  2.1102e-04  6.7351e-05  0:00:15  410
  4010  2.1828e-03  2.6261e-04  9.6249e-05  2.1530e-03  2.0876e-04  6.7185e-05  0:01:34  409
  4011  2.1792e-03  2.6108e-04  9.5582e-05  2.1494e-03  2.0647e-04  6.7039e-05  0:01:15  408
  4012  2.1754e-03  2.5771e-04  9.3819e-05  2.1455e-03  2.0417e-04  6.6886e-05  0:01:00  407
  4013  2.1711e-03  2.5335e-04  9.2101e-05  2.1412e-03  2.0183e-04  6.6743e-05  0:00:48  406

  iter  continuity  x-velocity  y-velocity      energy           k       omega     time/iter
  4014  2.1663e-03  2.5111e-04  9.1331e-05  2.1364e-03  1.9944e-04  6.6603e-05  0:00:38  405
  4015  2.1608e-03  2.4618e-04  9.0587e-05  2.1309e-03  1.9703e-04  6.6488e-05  0:00:30  404
  4016  2.1550e-03  2.4140e-04  8.9478e-05  2.1250e-03  1.9462e-04  6.6389e-05  0:00:24  403
  4017  2.1487e-03  2.3744e-04  8.9001e-05  2.1187e-03  1.9218e-04  6.6290e-05  0:00:19  402
  4018  2.1417e-03  2.3344e-04  8.8638e-05  2.1116e-03  1.8973e-04  6.6194e-05  0:00:15  401
  4019  2.1340e-03  2.2948e-04  8.8354e-05  2.1039e-03  1.8726e-04  6.6109e-05  0:00:12  400
  4020  2.1258e-03  2.2683e-04  8.8133e-05  2.0957e-03  1.8478e-04  6.6060e-05  0:01:30  399
  4021  2.1172e-03  2.2530e-04  8.8417e-05  2.0871e-03  1.8228e-04  6.6033e-05  0:01:12  398
  4022  2.1082e-03  2.2341e-04  8.8043e-05  2.0781e-03  1.7976e-04  6.6007e-05  0:00:57  397
  4023  2.0986e-03  2.1990e-04  8.6955e-05  2.0685e-03  1.7724e-04  6.5985e-05  0:00:46  396
  4024  2.0885e-03  2.1816e-04  8.5820e-05  2.0584e-03  1.7472e-04  6.5951e-05  0:00:36  395

  iter  continuity  x-velocity  y-velocity      energy           k       omega     time/iter
  4025  2.0781e-03  2.1790e-04  8.4691e-05  2.0479e-03  1.7219e-04  6.5927e-05  0:00:29  394
  4026  2.0674e-03  2.1896e-04  8.3908e-05  2.0372e-03  1.6966e-04  6.5906e-05  0:00:23  393
  4027  2.0562e-03  2.1606e-04  8.3322e-05  2.0261e-03  1.6714e-04  6.5862e-05  0:00:18  392
  4028  2.0446e-03  2.1531e-04  8.2839e-05  2.0145e-03  1.6463e-04  6.5793e-05  0:00:15  391
  4029  2.0328e-03  2.1512e-04  8.2233e-05  2.0027e-03  1.6210e-04  6.5718e-05  0:00:12  390
  4030  2.0207e-03  2.1700e-04  8.1720e-05  1.9906e-03  1.5958e-04  6.5646e-05  0:00:09  389
  4031  2.0085e-03  2.1935e-04  8.1453e-05  1.9784e-03  1.5707e-04  6.5597e-05  0:01:25  388
  4032  1.9961e-03  2.1803e-04  8.1632e-05  1.9661e-03  1.5458e-04  6.5527e-05  0:01:08  387
  4033  1.9834e-03  2.1661e-04  8.1092e-05  1.9534e-03  1.5212e-04  6.5479e-05  0:00:54  386
  4034  1.9707e-03  2.1596e-04  8.0852e-05  1.9406e-03  1.4968e-04  6.5423e-05  0:00:43  385
  4035  1.9577e-03  2.1496e-04  8.0467e-05  1.9276e-03  1.4727e-04  6.5356e-05  0:00:34  384

  iter  continuity  x-velocity  y-velocity      energy           k       omega     time/iter
  4036  1.9443e-03  2.1193e-04  7.9878e-05  1.9143e-03  1.4490e-04  6.5281e-05  0:00:28  383
  4037  1.9308e-03  2.1006e-04  7.9281e-05  1.9008e-03  1.4256e-04  6.5194e-05  0:00:22  382
  4038  1.9172e-03  2.0826e-04  7.8987e-05  1.8872e-03  1.4029e-04  6.5105e-05  0:00:18  381
  4039  1.9035e-03  2.0784e-04  7.9181e-05  1.8735e-03  1.3809e-04  6.5044e-05  0:00:14  380
  4040  1.8897e-03  2.0731e-04  7.9564e-05  1.8597e-03  1.3596e-04  6.5005e-05  0:00:11  379
  4041  1.8759e-03  2.0875e-04  7.9716e-05  1.8459e-03  1.3390e-04  6.4976e-05  0:01:25  378
  4042  1.8621e-03  2.1043e-04  8.0048e-05  1.8320e-03  1.3194e-04  6.4965e-05  0:01:07  377
  4043  1.8481e-03  2.1307e-04  7.9856e-05  1.8180e-03  1.3007e-04  6.4940e-05  0:00:54  376
  4044  1.8341e-03  2.1580e-04  7.9604e-05  1.8040e-03  1.2826e-04  6.4890e-05  0:00:43  375
  4045  1.8202e-03  2.2056e-04  7.9302e-05  1.7901e-03  1.2653e-04  6.4840e-05  0:00:34  374
  4046  1.8061e-03  2.2478e-04  7.9113e-05  1.7760e-03  1.2486e-04  6.4788e-05  0:00:27  373

  iter  continuity  x-velocity  y-velocity      energy           k       omega     time/iter
  4047  1.7920e-03  2.2969e-04  7.9066e-05  1.7618e-03  1.2327e-04  6.4768e-05  0:00:22  372
  4048  1.7777e-03  2.3632e-04  7.9396e-05  1.7475e-03  1.2175e-04  6.4752e-05  0:00:17  371
  4049  1.7630e-03  2.3853e-04  7.9214e-05  1.7329e-03  1.2035e-04  6.4752e-05  0:00:14  370
  4050  1.7483e-03  2.3740e-04  7.8981e-05  1.7182e-03  1.1905e-04  6.4751e-05  0:00:11  369
  4051  1.7333e-03  2.4005e-04  8.0060e-05  1.7032e-03  1.1784e-04  6.4738e-05  0:00:09  368
  4052  1.7180e-03  2.3678e-04  8.0715e-05  1.6880e-03  1.1671e-04  6.4689e-05  0:01:20  367
  4053  1.7024e-03  2.2865e-04  8.1443e-05  1.6725e-03  1.1570e-04  6.4615e-05  0:01:04  366
  4054  1.6871e-03  2.2806e-04  8.2026e-05  1.6572e-03  1.1475e-04  6.4527e-05  0:00:51  365
  4055  1.6718e-03  2.2926e-04  8.2485e-05  1.6421e-03  1.1390e-04  6.4442e-05  0:00:41  364
  4056  1.6569e-03  2.2612e-04  8.2159e-05  1.6272e-03  1.1314e-04  6.4355e-05  0:00:33  363
  4057  1.6421e-03  2.2474e-04  8.0988e-05  1.6124e-03  1.1251e-04  6.4267e-05  0:00:26  362

  iter  continuity  x-velocity  y-velocity      energy           k       omega     time/iter
  4058  1.6272e-03  2.1924e-04  8.0223e-05  1.5976e-03  1.1197e-04  6.4178e-05  0:00:21  361
  4059  1.6128e-03  2.1421e-04  7.9951e-05  1.5831e-03  1.1157e-04  6.4108e-05  0:00:17  360
  4060  1.5983e-03  2.1107e-04  7.9755e-05  1.5686e-03  1.1125e-04  6.4049e-05  0:00:13  359
  4061  1.5842e-03  2.1758e-04  7.9887e-05  1.5544e-03  1.1099e-04  6.4000e-05  0:00:11  358
  4062  1.5701e-03  2.2095e-04  8.0310e-05  1.5403e-03  1.1081e-04  6.3966e-05  0:00:08  357
  4063  1.5562e-03  2.2489e-04  8.1103e-05  1.5263e-03  1.1072e-04  6.3929e-05  0:01:18  356
  4064  1.5422e-03  2.2984e-04  8.1472e-05  1.5123e-03  1.1072e-04  6.3906e-05  0:01:02  355
  4065  1.5280e-03  2.3269e-04  8.1154e-05  1.4980e-03  1.1082e-04  6.3855e-05  0:00:50  354
  4066  1.5137e-03  2.3154e-04  8.1222e-05  1.4837e-03  1.1107e-04  6.3786e-05  0:00:40  353
  4067  1.4993e-03  2.3553e-04  8.1169e-05  1.4693e-03  1.1143e-04  6.3673e-05  0:00:32  352
  4068  1.4849e-03  2.3709e-04  8.1487e-05  1.4549e-03  1.1187e-04  6.3530e-05  0:00:25  351

  iter  continuity  x-velocity  y-velocity      energy           k       omega     time/iter
  4069  1.4708e-03  2.3952e-04  8.2038e-05  1.4408e-03  1.1240e-04  6.3369e-05  0:00:20  350
  4070  1.4568e-03  2.4512e-04  8.3134e-05  1.4268e-03  1.1296e-04  6.3202e-05  0:00:16  349
  4071  1.4428e-03  2.5153e-04  8.3945e-05  1.4128e-03  1.1359e-04  6.3043e-05  0:00:13  348
  4072  1.4294e-03  2.6801e-04  8.4355e-05  1.3994e-03  1.1424e-04  6.2878e-05  0:00:10  347
  4073  1.4156e-03  2.7732e-04  8.4863e-05  1.3857e-03  1.1493e-04  6.2687e-05  0:00:08  346
  4074  1.4012e-03  2.6757e-04  8.5936e-05  1.3712e-03  1.1563e-04  6.2483e-05  0:01:15  345
  4075  1.3867e-03  2.5353e-04  8.6917e-05  1.3568e-03  1.1640e-04  6.2313e-05  0:01:00  344
  4076  1.3729e-03  2.4325e-04  8.7987e-05  1.3431e-03  1.1722e-04  6.2171e-05  0:00:48  343
  4077  1.3595e-03  2.4025e-04  8.7778e-05  1.3297e-03  1.1812e-04  6.2066e-05  0:00:38  342
  4078  1.3464e-03  2.4778e-04  8.7790e-05  1.3167e-03  1.1908e-04  6.1965e-05  0:00:31  341
  4079  1.3336e-03  2.5236e-04  8.8324e-05  1.3040e-03  1.2011e-04  6.1891e-05  0:00:24  340

  iter  continuity  x-velocity  y-velocity      energy           k       omega     time/iter
  4080  1.3210e-03  2.5572e-04  8.8581e-05  1.2915e-03  1.2117e-04  6.1819e-05  0:00:19  339
  4081  1.3082e-03  2.5060e-04  8.8324e-05  1.2786e-03  1.2227e-04  6.1734e-05  0:00:16  338
  4082  1.2958e-03  2.5107e-04  8.8047e-05  1.2661e-03  1.2339e-04  6.1665e-05  0:00:12  337
  4083  1.2836e-03  2.5031e-04  8.7260e-05  1.2538e-03  1.2453e-04  6.1579e-05  0:00:10  336
  4084  1.2716e-03  2.5018e-04  8.5972e-05  1.2416e-03  1.2564e-04  6.1456e-05  0:00:08  335
  4085  1.2600e-03  2.5311e-04  8.5148e-05  1.2299e-03  1.2672e-04  6.1320e-05  0:01:13  334
  4086  1.2484e-03  2.5425e-04  8.4740e-05  1.2182e-03  1.2781e-04  6.1177e-05  0:00:58  333
  4087  1.2366e-03  2.5173e-04  8.4727e-05  1.2063e-03  1.2885e-04  6.1014e-05  0:00:46  332
  4088  1.2242e-03  2.3847e-04  8.4033e-05  1.1939e-03  1.2986e-04  6.0862e-05  0:00:37  331
  4089  1.2124e-03  2.3188e-04  8.3366e-05  1.1821e-03  1.3081e-04  6.0685e-05  0:00:30  330
  4090  1.2011e-03  2.3124e-04  8.2264e-05  1.1708e-03  1.3172e-04  6.0480e-05  0:00:24  329

  iter  continuity  x-velocity  y-velocity      energy           k       omega     time/iter
  4091  1.1898e-03  2.2488e-04  8.1427e-05  1.1595e-03  1.3257e-04  6.0245e-05  0:00:19  328
  4092  1.1783e-03  2.1666e-04  8.1084e-05  1.1481e-03  1.3338e-04  6.0002e-05  0:00:15  327
  4093  1.1673e-03  2.1550e-04  8.1301e-05  1.1370e-03  1.3414e-04  5.9768e-05  0:00:12  326
  4094  1.1565e-03  2.1823e-04  8.1404e-05  1.1263e-03  1.3486e-04  5.9541e-05  0:01:15  325
  4095  1.1461e-03  2.2383e-04  8.1380e-05  1.1159e-03  1.3554e-04  5.9310e-05  0:00:59  324
  4096  1.1359e-03  2.2770e-04  8.1332e-05  1.1057e-03  1.3618e-04  5.9090e-05  0:00:47  323
  4097  1.1260e-03  2.3420e-04  8.1880e-05  1.0958e-03  1.3680e-04  5.8887e-05  0:00:38  322
  4098  1.1164e-03  2.4285e-04  8.2812e-05  1.0861e-03  1.3740e-04  5.8699e-05  0:00:30  321
  4099  1.1068e-03  2.5112e-04  8.3799e-05  1.0766e-03  1.3796e-04  5.8522e-05  0:00:24  320
  4100  1.0977e-03  2.6055e-04  8.4656e-05  1.0675e-03  1.3852e-04  5.8359e-05  0:00:19  319
  4101  1.0890e-03  2.7601e-04  8.4857e-05  1.0588e-03  1.3905e-04  5.8225e-05  0:00:15  318

  iter  continuity  x-velocity  y-velocity      energy           k       omega     time/iter
  4102  1.0796e-03  2.8162e-04  8.6228e-05  1.0495e-03  1.3956e-04  5.8094e-05  0:00:12  317
  4103  1.0712e-03  2.9960e-04  8.7627e-05  1.0413e-03  1.4002e-04  5.7970e-05  0:00:10  316
  4104  1.0622e-03  3.0473e-04  8.8104e-05  1.0325e-03  1.4045e-04  5.7842e-05  0:00:08  315
  4105  1.0532e-03  3.0097e-04  8.8363e-05  1.0235e-03  1.4083e-04  5.7714e-05  0:01:09  314
  4106  1.0445e-03  2.9625e-04  8.9565e-05  1.0149e-03  1.4120e-04  5.7604e-05  0:00:55  313
  4107  1.0365e-03  2.8445e-04  9.0490e-05  1.0068e-03  1.4152e-04  5.7509e-05  0:00:44  312
  4108  1.0295e-03  2.7999e-04  8.9548e-05  9.9951e-04  1.4182e-04  5.7440e-05  0:00:35  311
  4109  1.0241e-03  2.8819e-04  8.8017e-05  9.9361e-04  1.4207e-04  5.7395e-05  0:00:28  310
  4110  1.0196e-03  3.0720e-04  8.7172e-05  9.8883e-04  1.4232e-04  5.7379e-05  0:00:22  309
  4111  1.0144e-03  3.0925e-04  8.7624e-05  9.8337e-04  1.4254e-04  5.7381e-05  0:00:18  308
  4112  1.0077e-03  3.0083e-04  8.7887e-05  9.7658e-04  1.4273e-04  5.7383e-05  0:01:16  307

  iter  continuity  x-velocity  y-velocity      energy           k       omega     time/iter
  4113  1.0005e-03  2.8484e-04  8.8680e-05  9.6955e-04  1.4291e-04  5.7369e-05  0:01:00  306
  4114  9.9382e-04  2.6763e-04  8.8136e-05  9.6297e-04  1.4309e-04  5.7344e-05  0:00:48  305
! 4114 solution is converged

> /plot/plot yes loading.txt yes no no absolute-pressure yes 1 0 upper-blade ()

> exit 
Posting ANSYS Product Improvement Program performance data 
Done.
yes
