
              Welcome to ANSYS Fluent 2021 R2

              Copyright 1987-2021 ANSYS, Inc. All Rights Reserved.
              Unauthorized use, distribution or duplication is prohibited.
              This product is subject to U.S. laws governing export and re-export.
              For full Legal Notice, see documentation.

Build Time: May 28 2021 13:54:56 EDT  Build Id: 10201  
 

     --------------------------------------------------------------
     This is an academic version of ANSYS FLUENT. Usage of this product
     license is limited to the terms and conditions specified in your ANSYS
     license form, additional terms section.
     --------------------------------------------------------------
Host spawning Node 0 on machine "WL-CH-009" (win64).

-------------------------------------------------------------------------------
ID    Hostname   Core   O.S.         PID    Vendor                       
-------------------------------------------------------------------------------
n31   WL-CH-009  32/36  Windows-x64  1132   Intel(R) Xeon(R) W-2295      
n30   WL-CH-009  31/36  Windows-x64  39500  Intel(R) Xeon(R) W-2295      
n29   WL-CH-009  30/36  Windows-x64  34368  Intel(R) Xeon(R) W-2295      
n28   WL-CH-009  29/36  Windows-x64  13644  Intel(R) Xeon(R) W-2295      
n27   WL-CH-009  28/36  Windows-x64  36424  Intel(R) Xeon(R) W-2295      
n26   WL-CH-009  27/36  Windows-x64  9056   Intel(R) Xeon(R) W-2295      
n25   WL-CH-009  26/36  Windows-x64  17064  Intel(R) Xeon(R) W-2295      
n24   WL-CH-009  25/36  Windows-x64  35888  Intel(R) Xeon(R) W-2295      
n23   WL-CH-009  24/36  Windows-x64  36692  Intel(R) Xeon(R) W-2295      
n22   WL-CH-009  23/36  Windows-x64  40576  Intel(R) Xeon(R) W-2295      
n21   WL-CH-009  22/36  Windows-x64  42552  Intel(R) Xeon(R) W-2295      
n20   WL-CH-009  21/36  Windows-x64  27308  Intel(R) Xeon(R) W-2295      
n19   WL-CH-009  20/36  Windows-x64  43420  Intel(R) Xeon(R) W-2295      
n18   WL-CH-009  19/36  Windows-x64  34536  Intel(R) Xeon(R) W-2295      
n17   WL-CH-009  18/36  Windows-x64  32168  Intel(R) Xeon(R) W-2295      
n16   WL-CH-009  17/36  Windows-x64  39988  Intel(R) Xeon(R) W-2295      
n15   WL-CH-009  16/36  Windows-x64  25364  Intel(R) Xeon(R) W-2295      
n14   WL-CH-009  15/36  Windows-x64  28944  Intel(R) Xeon(R) W-2295      
n13   WL-CH-009  14/36  Windows-x64  42452  Intel(R) Xeon(R) W-2295      
n12   WL-CH-009  13/36  Windows-x64  26280  Intel(R) Xeon(R) W-2295      
-------------------------------------------------------------------------------
ID    Hostname   Core   O.S.         PID    Vendor                       
-------------------------------------------------------------------------------
n11   WL-CH-009  12/36  Windows-x64  30744  Intel(R) Xeon(R) W-2295      
n10   WL-CH-009  11/36  Windows-x64  29564  Intel(R) Xeon(R) W-2295      
n9    WL-CH-009  10/36  Windows-x64  32728  Intel(R) Xeon(R) W-2295      
n8    WL-CH-009  9/36   Windows-x64  18332  Intel(R) Xeon(R) W-2295      
n7    WL-CH-009  8/36   Windows-x64  11676  Intel(R) Xeon(R) W-2295      
n6    WL-CH-009  7/36   Windows-x64  38908  Intel(R) Xeon(R) W-2295      
n5    WL-CH-009  6/36   Windows-x64  44592  Intel(R) Xeon(R) W-2295      
n4    WL-CH-009  5/36   Windows-x64  38512  Intel(R) Xeon(R) W-2295      
n3    WL-CH-009  4/36   Windows-x64  8232   Intel(R) Xeon(R) W-2295      
n2    WL-CH-009  3/36   Windows-x64  14000  Intel(R) Xeon(R) W-2295      
n1    WL-CH-009  2/36   Windows-x64  40992  Intel(R) Xeon(R) W-2295      
n0*   WL-CH-009  1/36   Windows-x64  24188  Intel(R) Xeon(R) W-2295      
host  WL-CH-009         Windows-x64  45196  Intel(R) Xeon(R) W-2295      

MPI Option Selected: intel
Selected system interconnect: default
-------------------------------------------------------------------------------

Cleanup script file is E:\\MATLAB\\RANS_optimisation\\cleanup-fluent-WL-CH-009-45196.bat

Posting ANSYS Product Improvement Program startup data
Done.

Reading journal file E:\MATLAB\RANS_optimisation\run14\fluent_input.jou...

> /sync-chdir E:\MATLAB\RANS_optimisation\run14

> /file/read-case "grid.msh"
Reading "grid.msh"...

Buffering for file scan...

  112722 quadrilateral cells, zone  9.
  224998 2D interior faces, zone  2.
Warning: Reversing 238 faces, zone  2.
     237 2D pressure-inlet faces, zone  3.
Warning: Reversing 237 faces, zone  3.
     477 2D pressure-outlet faces, zone  4.
Warning: Reversing 477 faces, zone  4.
     477 2D pressure-outlet faces, zone  5.
     207 2D pressure-outlet faces, zone  6.
     253 2D wall faces, zone  7.
Warning: Reversing 15 faces, zone  7.
     253 2D wall faces, zone  8.
Warning: Reversing 223 faces, zone  8.
  113674 nodes.

Building...
     mesh
	auto partitioning mesh by Metis (fast),
	distributing mesh
		parts................................,
		faces................................,
		nodes................................,
		cells................................,
        bandwidth reduction using Reverse Cuthill-McKee: 2716/83 = 32.7229
     materials,
     interface,
     domains,
     zones,
	fluid-9
	wall-8
	wall-7
	pressure-outlet-6
	pressure-outlet-5
	pressure-outlet-4
	pressure-inlet-3
	interior-2
     parallel,
Done.

Preparing mesh for display...
Done.
 

> /define/boundary-conditions/modify-zones/zone-name 3 inlet 

> /define/boundary-conditions/modify-zones/zone-name 4 upper 

> /define/boundary-conditions/modify-zones/zone-name 5 lower 

> /define/boundary-conditions/modify-zones/zone-name 6 outlet

> /define/boundary-conditions/modify-zones/zone-name 7 upper-blade

> /define/boundary-conditions/modify-zones/zone-name 8 lower-blade

> /define/materials/change-create air air air is a fluid
yes 
Density
ideal-gas no data required.

yes 
Cp (Specific Heat)
constant 1005 
yes 
Thermal Conductivity
expression "DynamicViscosity*1005 [J/(kg K)]/0.72"
 yes 
Viscosity
sutherland three-coefficient-method 5.83247e-04 273 110.4 
no no no

Note: Enabling energy equation as required by material density method.

> /define/operating-conditions/operating-pressure 0

> /define/models/viscous/kw-sst? yes

> /define/boundary-conditions/zone-type inlet pressure-inlet 

> /define/boundary-conditions/pressure-inlet (inlet)
inlet yes no 74575.2 no 46984 no 300 no yes no no yes 0.5 1

> /define/boundary-conditions/zone-type outlet pressure-outlet 

> /define/boundary-conditions/bc-settings/pressure-outlet 0. 65 

> /define/boundary-conditions/pressure-outlet (outlet upper lower)
outlet yes no 46984 no 300 no yes no no yes 0.5 1 yes no no

> /define/boundary-conditions/copy-bc outlet (upper lower)Copy outlet boundary conditions to lower
Copy outlet boundary conditions to upper


> /define/boundary-conditions/wall (upper-blade lower-blade)
upper-blade 0 no 0 no no no 0 no no no no 0 no 0.5 no 1

> /define/boundary-conditions/copy-bc upper-blade (lower-blade)Copy upper-blade boundary conditions to lower-blade


> /define/models/solver/densit-based-implicit yes

> /file/read-data E:\MATLAB\RANS_optimisation\clean.dat

Reading "E:\MATLAB\RANS_optimisation\clean.dat"...



Warning: case and data files are inconsistent; zone 7, case [1399,1651], data [1399,1652]
Warning: case and data files are inconsistent; zone 8, case [1652,1904], data [1653,1904]
Warning: case and data files are inconsistent; zone 7, case [1399,1651], data [1399,1652]
Warning: case and data files are inconsistent; zone 8, case [1652,1904], data [1653,1904]
Warning: case and data files are inconsistent; zone 7, case [1399,1651], data [1399,1652]
Warning: case and data files are inconsistent; zone 8, case [1652,1904], data [1653,1904]
Warning: case and data files are inconsistent; zone 7, case [1399,1651], data [1399,1652]
Warning: case and data files are inconsistent; zone 8, case [1652,1904], data [1653,1904]
Warning: case and data files are inconsistent; zone 7, case [1399,1651], data [1399,1652]
Warning: case and data files are inconsistent; zone 8, case [1652,1904], data [1653,1904]
Warning: case and data files are inconsistent; zone 7, case [1399,1651], data [1399,1652]
Warning: case and data files are inconsistent; zone 8, case [1652,1904], data [1653,1904]
Warning: case and data files are inconsistent; zone 7, case [1399,1651], data [1399,1652]
Warning: case and data files are inconsistent; zone 8, case [1652,1904], data [1653,1904]
Warning: case and data files are inconsistent; zone 7, case [1399,1651], data [1399,1652]
Warning: case and data files are inconsistent; zone 8, case [1652,1904], data [1653,1904]
Warning: case and data files are inconsistent; zone 7, case [1399,1651], data [1399,1652]
Warning: case and data files are inconsistent; zone 8, case [1652,1904], data [1653,1904]
Warning: case and data files are inconsistent; zone 7, case [1399,1651], data [1399,1652]
Warning: case and data files are inconsistent; zone 8, case [1652,1904], data [1653,1904]
Warning: case and data files are inconsistent; zone 7, case [1399,1651], data [1399,1652]
Warning: case and data files are inconsistent; zone 8, case [1652,1904], data [1653,1904]
Warning: case and data files are inconsistent; zone 7, case [1399,1651], data [1399,1652]
Warning: case and data files are inconsistent; zone 8, case [1652,1904], data [1653,1904]
Warning: case and data files are inconsistent; zone 7, case [1399,1651], data [1399,1652]
Warning: case and data files are inconsistent; zone 8, case [1652,1904], data [1653,1904]
Parallel variables...
Done.

> ;/solve/initialize/initialize-flow
;/solve/initialize/compute-defaults/pressure-inlet inlet
;/solve/initialize/initialize-flow yes
;/solve/initialize/hyb-initialization
/solve/iterate 2000

  iter  continuity  x-velocity  y-velocity      energy           k       omega     time/iter
  2419  9.9521e-04  3.5719e-04  6.8654e-05  9.7828e-04  1.7105e-04  4.2984e-05  0:00:00 2000
  2420  9.0008e-02  5.9852e-02  5.4562e-02  9.0011e-02  4.0125e-03  1.4736e-02  0:00:00 1999
  2421  7.5447e-02  4.5328e-02  5.2388e-02  7.5824e-02  3.8454e-03  9.3497e-03  0:00:00 1998
  2422  5.8543e-02  3.2012e-02  5.0071e-02  5.8746e-02  3.6637e-03  7.6213e-03  0:00:00 1997
  2423  4.4930e-02  2.4222e-02  4.3505e-02  4.4644e-02  3.4861e-03  6.4694e-03  0:00:00 1996
  2424  3.5438e-02  2.0199e-02  3.5494e-02  3.4867e-02  3.3087e-03  5.8893e-03  0:33:15 1995
  2425  2.9243e-02  1.7990e-02  2.7991e-02  2.8693e-02  3.1316e-03  5.4412e-03  0:26:35 1994
  2426  2.5441e-02  1.6473e-02  2.1903e-02  2.5062e-02  2.9580e-03  4.9483e-03  0:21:16 1993
  2427  2.3287e-02  1.5204e-02  1.7419e-02  2.3084e-02  2.7872e-03  4.4421e-03  0:17:00 1992
  2428  2.2003e-02  1.4016e-02  1.4373e-02  2.1928e-02  2.6266e-03  3.9770e-03  0:13:36 1991
  2429  2.1001e-02  1.2845e-02  1.2433e-02  2.1005e-02  2.4784e-03  3.4783e-03  0:10:52 1990

  iter  continuity  x-velocity  y-velocity      energy           k       omega     time/iter
  2430  1.9985e-02  1.1673e-02  1.1246e-02  2.0030e-02  2.3422e-03  3.0242e-03  0:08:41 1989
  2431  1.8871e-02  1.0517e-02  1.0489e-02  1.8927e-02  2.2209e-03  2.6670e-03  0:06:57 1988
  2432  1.7690e-02  9.3969e-03  9.9475e-03  1.7735e-02  2.1157e-03  2.4569e-03  0:05:33 1987
  2433  1.6510e-02  8.3390e-03  9.4790e-03  1.6526e-02  2.0242e-03  2.3132e-03  0:04:27 1986
  2434  1.5397e-02  7.3825e-03  9.0071e-03  1.5369e-02  1.9426e-03  2.2113e-03  0:03:33 1985
  2435  1.4406e-02  6.5926e-03  8.5218e-03  1.4328e-02  1.8700e-03  2.1440e-03  0:09:27 1984
  2436  1.3564e-02  6.0222e-03  8.0207e-03  1.3433e-02  1.8059e-03  2.1158e-03  0:07:34 1983
  2437  1.2864e-02  5.7027e-03  7.5238e-03  1.2681e-02  1.7480e-03  2.0970e-03  0:06:03 1982
  2438  1.2300e-02  5.6006e-03  7.0315e-03  1.2070e-02  1.6961e-03  2.0929e-03  0:04:50 1981
  2439  1.1854e-02  5.6828e-03  6.5763e-03  1.1583e-02  1.6499e-03  2.0980e-03  0:03:52 1980
  2440  1.1519e-02  5.8677e-03  6.1678e-03  1.1213e-02  1.6079e-03  2.1006e-03  0:03:05 1979

  iter  continuity  x-velocity  y-velocity      energy           k       omega     time/iter
  2441  1.1291e-02  6.1062e-03  5.8193e-03  1.0956e-02  1.5697e-03  2.0951e-03  0:02:28 1978
  2442  1.1167e-02  6.3349e-03  5.5335e-03  1.0808e-02  1.5356e-03  2.0854e-03  0:01:59 1977
  2443  1.1136e-02  6.5238e-03  5.3067e-03  1.0755e-02  1.5045e-03  2.0776e-03  0:01:35 1976
  2444  1.1224e-02  6.6537e-03  5.1276e-03  1.0826e-02  1.4760e-03  2.0791e-03  0:01:16 1975
  2445  1.1501e-02  6.7288e-03  4.9996e-03  1.1089e-02  1.4510e-03  2.0713e-03  0:01:01 1974
  2446  1.1978e-02  6.7466e-03  4.9087e-03  1.1559e-02  1.4291e-03  2.0599e-03  0:07:23 1973
  2447  1.2651e-02  6.7146e-03  4.8460e-03  1.2228e-02  1.4100e-03  2.0469e-03  0:05:54 1972
  2448  1.3480e-02  6.6430e-03  4.7927e-03  1.3060e-02  1.3945e-03  2.0197e-03  0:04:43 1971
  2449  1.4452e-02  6.5385e-03  4.7380e-03  1.4035e-02  1.3812e-03  1.9846e-03  0:03:46 1970
  2450  1.5539e-02  6.4199e-03  4.6654e-03  1.5128e-02  1.3709e-03  1.9394e-03  0:03:01 1969
  2451  1.6678e-02  6.2986e-03  4.5810e-03  1.6273e-02  1.3640e-03  1.8944e-03  0:02:25 1968

  iter  continuity  x-velocity  y-velocity      energy           k       omega     time/iter
  2452  1.7789e-02  6.1921e-03  4.4723e-03  1.7394e-02  1.3585e-03  1.8541e-03  0:01:56 1967
  2453  1.8831e-02  6.1014e-03  4.3376e-03  1.8447e-02  1.3549e-03  1.8152e-03  0:01:33 1966
  2454  1.9753e-02  6.0316e-03  4.1777e-03  1.9380e-02  1.3519e-03  1.7826e-03  0:01:14 1965
  2455  2.0564e-02  5.9896e-03  3.9968e-03  2.0203e-02  1.3493e-03  1.7583e-03  0:00:59 1964
  2456  2.1274e-02  5.9805e-03  3.8089e-03  2.0927e-02  1.3478e-03  1.7380e-03  0:07:20 1963
  2457  2.1844e-02  5.9883e-03  3.6154e-03  2.1512e-02  1.3468e-03  1.7209e-03  0:05:52 1962
  2458  2.2270e-02  6.0161e-03  3.4339e-03  2.1954e-02  1.3479e-03  1.7050e-03  0:04:41 1961
  2459  2.2522e-02  6.0508e-03  3.2683e-03  2.2223e-02  1.3495e-03  1.6954e-03  0:03:45 1960
  2460  2.2572e-02  6.0844e-03  3.1295e-03  2.2291e-02  1.3521e-03  1.6899e-03  0:03:00 1959
  2461  2.2453e-02  6.1066e-03  3.0124e-03  2.2189e-02  1.3555e-03  1.6862e-03  0:02:24 1958
  2462  2.2205e-02  6.1109e-03  2.9281e-03  2.1958e-02  1.3598e-03  1.6835e-03  0:01:55 1957

  iter  continuity  x-velocity  y-velocity      energy           k       omega     time/iter
  2463  2.1843e-02  6.1001e-03  2.8806e-03  2.1612e-02  1.3641e-03  1.6715e-03  0:01:32 1956
  2464  2.1403e-02  6.0662e-03  2.8554e-03  2.1188e-02  1.3690e-03  1.6594e-03  0:01:14 1955
  2465  2.0882e-02  6.0059e-03  2.8532e-03  2.0681e-02  1.3748e-03  1.6474e-03  0:00:59 1954
  2466  2.0269e-02  5.9248e-03  2.8551e-03  2.0081e-02  1.3808e-03  1.6355e-03  0:07:18 1953
  2467  1.9577e-02  5.8272e-03  2.8628e-03  1.9402e-02  1.3877e-03  1.6300e-03  0:05:50 1952
  2468  1.8824e-02  5.7208e-03  2.8890e-03  1.8658e-02  1.3944e-03  1.6210e-03  0:04:40 1951
  2469  1.8022e-02  5.6010e-03  2.9005e-03  1.7865e-02  1.3994e-03  1.6076e-03  0:03:44 1950
  2470  1.7181e-02  5.4721e-03  2.9012e-03  1.7032e-02  1.4046e-03  1.5944e-03  0:02:59 1949
  2471  1.6324e-02  5.3404e-03  2.9039e-03  1.6182e-02  1.4087e-03  1.5851e-03  0:02:23 1948
  2472  1.5464e-02  5.2070e-03  2.9014e-03  1.5325e-02  1.4144e-03  1.5723e-03  0:01:54 1947
  2473  1.4609e-02  5.0752e-03  2.9028e-03  1.4472e-02  1.4179e-03  1.5604e-03  0:01:31 1946

  iter  continuity  x-velocity  y-velocity      energy           k       omega     time/iter
  2474  1.3759e-02  4.9413e-03  2.8991e-03  1.3622e-02  1.4205e-03  1.5476e-03  0:01:13 1945
  2475  1.2927e-02  4.8100e-03  2.8896e-03  1.2791e-02  1.4238e-03  1.5374e-03  0:00:58 1944
  2476  1.2127e-02  4.6821e-03  2.8701e-03  1.1990e-02  1.4263e-03  1.5299e-03  0:00:47 1943
  2477  1.1386e-02  4.5635e-03  2.8516e-03  1.1247e-02  1.4293e-03  1.5246e-03  0:07:06 1942
  2478  1.0720e-02  4.4553e-03  2.8294e-03  1.0578e-02  1.4330e-03  1.5157e-03  0:05:40 1941
  2479  1.0126e-02  4.3550e-03  2.8116e-03  9.9825e-03  1.4384e-03  1.5076e-03  0:04:32 1940
  2480  9.6111e-03  4.2607e-03  2.7923e-03  9.4655e-03  1.4445e-03  1.4995e-03  0:03:38 1939
  2481  9.1668e-03  4.1646e-03  2.7705e-03  9.0192e-03  1.4499e-03  1.4917e-03  0:02:54 1938
  2482  8.7894e-03  4.0744e-03  2.7484e-03  8.6400e-03  1.4549e-03  1.4827e-03  0:02:19 1937
  2483  8.4885e-03  3.9925e-03  2.7263e-03  8.3380e-03  1.4622e-03  1.4716e-03  0:01:51 1936
  2484  8.2752e-03  3.9174e-03  2.7009e-03  8.1261e-03  1.4695e-03  1.4679e-03  0:01:29 1935

  iter  continuity  x-velocity  y-velocity      energy           k       omega     time/iter
  2485  8.1379e-03  3.8497e-03  2.6665e-03  7.9907e-03  1.4773e-03  1.4674e-03  0:01:11 1934
  2486  8.0582e-03  3.7845e-03  2.6285e-03  7.9126e-03  1.4845e-03  1.4637e-03  0:00:57 1933
  2487  8.0332e-03  3.7208e-03  2.5948e-03  7.8899e-03  1.4917e-03  1.4561e-03  0:07:12 1932
  2488  8.0523e-03  3.6657e-03  2.5594e-03  7.9111e-03  1.5004e-03  1.4478e-03  0:05:45 1931
  2489  8.1147e-03  3.6161e-03  2.5222e-03  7.9770e-03  1.5088e-03  1.4409e-03  0:04:36 1930
  2490  8.1999e-03  3.5763e-03  2.4849e-03  8.0649e-03  1.5172e-03  1.4359e-03  0:03:41 1929
  2491  8.3018e-03  3.5405e-03  2.4419e-03  8.1690e-03  1.5250e-03  1.4265e-03  0:02:57 1928
  2492  8.4086e-03  3.5031e-03  2.3954e-03  8.2775e-03  1.5333e-03  1.4209e-03  0:02:21 1927
  2493  8.5178e-03  3.4703e-03  2.3470e-03  8.3876e-03  1.5420e-03  1.4142e-03  0:01:53 1926
  2494  8.6391e-03  3.4454e-03  2.2980e-03  8.5098e-03  1.5511e-03  1.4130e-03  0:01:30 1925
  2495  8.7685e-03  3.4216e-03  2.2458e-03  8.6406e-03  1.5588e-03  1.4061e-03  0:01:12 1924

  iter  continuity  x-velocity  y-velocity      energy           k       omega     time/iter
  2496  8.8943e-03  3.4015e-03  2.2008e-03  8.7671e-03  1.5662e-03  1.3975e-03  0:00:58 1923
  2497  9.0122e-03  3.3844e-03  2.1546e-03  8.8857e-03  1.5735e-03  1.3896e-03  0:07:11 1922
  2498  9.1178e-03  3.3681e-03  2.1026e-03  8.9922e-03  1.5801e-03  1.3774e-03  0:05:44 1921
  2499  9.2179e-03  3.3546e-03  2.0541e-03  9.0934e-03  1.5870e-03  1.3660e-03  0:04:35 1920
  2500  9.3085e-03  3.3390e-03  2.0075e-03  9.1850e-03  1.5936e-03  1.3570e-03  0:03:40 1919
  2501  9.3945e-03  3.3244e-03  1.9533e-03  9.2731e-03  1.5996e-03  1.3499e-03  0:02:56 1918
  2502  9.4658e-03  3.3173e-03  1.9032e-03  9.3467e-03  1.6060e-03  1.3418e-03  0:02:21 1917
  2503  9.5220e-03  3.3070e-03  1.8561e-03  9.4050e-03  1.6133e-03  1.3301e-03  0:01:53 1916
  2504  9.5656e-03  3.2958e-03  1.8210e-03  9.4504e-03  1.6211e-03  1.3184e-03  0:01:30 1915
  2505  9.5882e-03  3.2851e-03  1.7873e-03  9.4745e-03  1.6286e-03  1.3061e-03  0:01:12 1914
  2506  9.5925e-03  3.2732e-03  1.7649e-03  9.4810e-03  1.6352e-03  1.2935e-03  0:00:58 1913

  iter  continuity  x-velocity  y-velocity      energy           k       omega     time/iter
  2507  9.5851e-03  3.2637e-03  1.7353e-03  9.4761e-03  1.6420e-03  1.2797e-03  0:07:08 1912
  2508  9.5669e-03  3.2569e-03  1.7058e-03  9.4614e-03  1.6507e-03  1.2669e-03  0:05:43 1911
  2509  9.5320e-03  3.2528e-03  1.6802e-03  9.4301e-03  1.6590e-03  1.2553e-03  0:04:34 1910
  2510  9.4776e-03  3.2387e-03  1.6510e-03  9.3792e-03  1.6664e-03  1.2434e-03  0:03:39 1909
  2511  9.4149e-03  3.2274e-03  1.6314e-03  9.3201e-03  1.6734e-03  1.2310e-03  0:02:55 1908
  2512  9.3423e-03  3.2160e-03  1.6227e-03  9.2506e-03  1.6820e-03  1.2165e-03  0:02:20 1907
  2513  9.2609e-03  3.2076e-03  1.6198e-03  9.1725e-03  1.6906e-03  1.2014e-03  0:01:52 1906
  2514  9.1735e-03  3.2006e-03  1.6144e-03  9.0893e-03  1.6991e-03  1.1876e-03  0:07:51 1905
  2515  9.0744e-03  3.2017e-03  1.6127e-03  8.9937e-03  1.7071e-03  1.1749e-03  0:06:16 1904
  2516  8.9647e-03  3.2015e-03  1.6138e-03  8.8873e-03  1.7162e-03  1.1625e-03  0:05:01 1903
  2517  8.8494e-03  3.1880e-03  1.6088e-03  8.7750e-03  1.7256e-03  1.1512e-03  0:04:01 1902

  iter  continuity  x-velocity  y-velocity      energy           k       omega     time/iter
  2518  8.7331e-03  3.1729e-03  1.6094e-03  8.6618e-03  1.7348e-03  1.1414e-03  0:03:12 1901
  2519  8.6158e-03  3.1610e-03  1.6185e-03  8.5473e-03  1.7436e-03  1.1326e-03  0:02:34 1900
  2520  8.5040e-03  3.1505e-03  1.6236e-03  8.4387e-03  1.7528e-03  1.1221e-03  0:02:03 1899
  2521  8.3878e-03  3.1444e-03  1.6285e-03  8.3250e-03  1.7621e-03  1.1116e-03  0:01:38 1898
  2522  8.2744e-03  3.1399e-03  1.6262e-03  8.2139e-03  1.7708e-03  1.1019e-03  0:01:19 1897
  2523  8.1816e-03  3.1308e-03  1.6310e-03  8.1236e-03  1.7790e-03  1.0924e-03  0:07:22 1896
  2524  8.0843e-03  3.1175e-03  1.6359e-03  8.0281e-03  1.7869e-03  1.0828e-03  0:05:53 1895
  2525  7.9935e-03  3.1031e-03  1.6421e-03  7.9387e-03  1.7939e-03  1.0730e-03  0:04:43 1894
  2526  7.9110e-03  3.0905e-03  1.6484e-03  7.8574e-03  1.8005e-03  1.0632e-03  0:03:46 1893
  2527  7.8285e-03  3.0805e-03  1.6568e-03  7.7755e-03  1.8064e-03  1.0541e-03  0:03:01 1892
  2528  7.7575e-03  3.0672e-03  1.6633e-03  7.7048e-03  1.8119e-03  1.0467e-03  0:02:24 1891

  iter  continuity  x-velocity  y-velocity      energy           k       omega     time/iter
  2529  7.6973e-03  3.0448e-03  1.6674e-03  7.6449e-03  1.8162e-03  1.0393e-03  0:01:56 1890
  2530  7.6412e-03  3.0150e-03  1.6583e-03  7.5888e-03  1.8210e-03  1.0309e-03  0:01:32 1889
  2531  7.6000e-03  2.9886e-03  1.6528e-03  7.5474e-03  1.8261e-03  1.0223e-03  0:01:14 1888
  2532  7.5670e-03  2.9638e-03  1.6504e-03  7.5140e-03  1.8301e-03  1.0150e-03  0:00:59 1887
  2533  7.5425e-03  2.9378e-03  1.6508e-03  7.4888e-03  1.8339e-03  1.0080e-03  0:00:47 1886
  2534  7.5286e-03  2.9094e-03  1.6473e-03  7.4741e-03  1.8373e-03  1.0008e-03  0:06:55 1885
  2535  7.5273e-03  2.8782e-03  1.6401e-03  7.4718e-03  1.8407e-03  9.9237e-04  0:05:32 1884
  2536  7.5312e-03  2.8429e-03  1.6319e-03  7.4748e-03  1.8441e-03  9.8429e-04  0:04:25 1883
  2537  7.5368e-03  2.8071e-03  1.6241e-03  7.4794e-03  1.8470e-03  9.7760e-04  0:03:32 1882
  2538  7.5410e-03  2.7715e-03  1.6149e-03  7.4818e-03  1.8494e-03  9.7043e-04  0:02:50 1881
  2539  7.5478e-03  2.7333e-03  1.6060e-03  7.4865e-03  1.8517e-03  9.6396e-04  0:02:16 1880

  iter  continuity  x-velocity  y-velocity      energy           k       omega     time/iter
  2540  7.5615e-03  2.6911e-03  1.5945e-03  7.4983e-03  1.8544e-03  9.5950e-04  0:01:48 1879
  2541  7.5794e-03  2.6460e-03  1.5776e-03  7.5143e-03  1.8571e-03  9.5468e-04  0:01:27 1878
  2542  7.6015e-03  2.6016e-03  1.5609e-03  7.5344e-03  1.8594e-03  9.4771e-04  0:01:09 1877
  2543  7.6186e-03  2.5557e-03  1.5404e-03  7.5496e-03  1.8610e-03  9.4016e-04  0:00:55 1876
  2544  7.6316e-03  2.5106e-03  1.5220e-03  7.5609e-03  1.8630e-03  9.3289e-04  0:06:59 1875
  2545  7.6361e-03  2.4645e-03  1.5024e-03  7.5635e-03  1.8644e-03  9.2494e-04  0:05:35 1874
  2546  7.6337e-03  2.4154e-03  1.4837e-03  7.5590e-03  1.8658e-03  9.1783e-04  0:04:28 1873
  2547  7.6214e-03  2.3678e-03  1.4619e-03  7.5446e-03  1.8671e-03  9.1122e-04  0:03:34 1872
  2548  7.6032e-03  2.3220e-03  1.4388e-03  7.5244e-03  1.8684e-03  9.0475e-04  0:02:51 1871
  2549  7.5790e-03  2.2769e-03  1.4163e-03  7.4982e-03  1.8696e-03  8.9758e-04  0:02:17 1870
  2550  7.5510e-03  2.2328e-03  1.3970e-03  7.4684e-03  1.8710e-03  8.9020e-04  0:01:50 1869

  iter  continuity  x-velocity  y-velocity      energy           k       omega     time/iter
  2551  7.5104e-03  2.1912e-03  1.3733e-03  7.4257e-03  1.8731e-03  8.8402e-04  0:01:28 1868
  2552  7.4666e-03  2.1525e-03  1.3504e-03  7.3804e-03  1.8745e-03  8.7753e-04  0:01:10 1867
  2553  7.4144e-03  2.1152e-03  1.3275e-03  7.3268e-03  1.8750e-03  8.6926e-04  0:00:56 1866
  2554  7.3586e-03  2.0800e-03  1.3036e-03  7.2700e-03  1.8748e-03  8.6042e-04  0:00:45 1865
  2555  7.3019e-03  2.0480e-03  1.2811e-03  7.2125e-03  1.8738e-03  8.5158e-04  0:06:49 1864
  2556  7.2482e-03  2.0175e-03  1.2592e-03  7.1585e-03  1.8722e-03  8.4200e-04  0:05:27 1863
  2557  7.1893e-03  1.9880e-03  1.2381e-03  7.0994e-03  1.8694e-03  8.3249e-04  0:04:21 1862
  2558  7.1319e-03  1.9607e-03  1.2183e-03  7.0423e-03  1.8657e-03  8.2247e-04  0:03:29 1861
  2559  7.0769e-03  1.9343e-03  1.1991e-03  6.9879e-03  1.8607e-03  8.1191e-04  0:02:47 1860
  2560  7.0318e-03  1.9101e-03  1.1814e-03  6.9439e-03  1.8539e-03  8.0210e-04  0:02:14 1859
  2561  7.0004e-03  1.8881e-03  1.1651e-03  6.9139e-03  1.8453e-03  7.9288e-04  0:01:47 1858

  iter  continuity  x-velocity  y-velocity      energy           k       omega     time/iter
  2562  6.9686e-03  1.8690e-03  1.1500e-03  6.8838e-03  1.8351e-03  7.8349e-04  0:01:25 1857
  2563  6.9436e-03  1.8516e-03  1.1356e-03  6.8610e-03  1.8237e-03  7.7401e-04  0:01:08 1856
  2564  6.9274e-03  1.8335e-03  1.1235e-03  6.8472e-03  1.8108e-03  7.6490e-04  0:00:55 1855
  2565  6.9213e-03  1.8162e-03  1.1130e-03  6.8438e-03  1.7965e-03  7.5605e-04  0:00:44 1854
  2566  6.9238e-03  1.7996e-03  1.1039e-03  6.8491e-03  1.7806e-03  7.4654e-04  0:06:45 1853
  2567  6.9378e-03  1.7845e-03  1.0965e-03  6.8660e-03  1.7637e-03  7.3790e-04  0:05:24 1852
  2568  6.9613e-03  1.7706e-03  1.0911e-03  6.8923e-03  1.7456e-03  7.2961e-04  0:04:19 1851
  2569  6.9930e-03  1.7577e-03  1.0876e-03  6.9269e-03  1.7268e-03  7.2154e-04  0:03:27 1850
  2570  7.0312e-03  1.7444e-03  1.0858e-03  6.9677e-03  1.7087e-03  7.1346e-04  0:02:46 1849
  2571  7.0726e-03  1.7314e-03  1.0859e-03  7.0115e-03  1.6911e-03  7.0499e-04  0:02:13 1848
  2572  7.1172e-03  1.7191e-03  1.0873e-03  7.0581e-03  1.6737e-03  6.9669e-04  0:01:46 1847

  iter  continuity  x-velocity  y-velocity      energy           k       omega     time/iter
  2573  7.1588e-03  1.7075e-03  1.0908e-03  7.1014e-03  1.6569e-03  6.8877e-04  0:01:25 1846
  2574  7.1957e-03  1.6965e-03  1.0964e-03  7.1396e-03  1.6406e-03  6.8070e-04  0:01:08 1845
  2575  7.2279e-03  1.6860e-03  1.1032e-03  7.1729e-03  1.6246e-03  6.7217e-04  0:00:54 1844
  2576  7.2543e-03  1.6741e-03  1.1115e-03  7.2000e-03  1.6087e-03  6.6484e-04  0:06:52 1843
  2577  7.2748e-03  1.6626e-03  1.1217e-03  7.2209e-03  1.5935e-03  6.5789e-04  0:05:29 1842
  2578  7.2852e-03  1.6514e-03  1.1333e-03  7.2314e-03  1.5800e-03  6.5098e-04  0:04:23 1841
  2579  7.2824e-03  1.6411e-03  1.1460e-03  7.2283e-03  1.5671e-03  6.4428e-04  0:03:31 1840
  2580  7.2619e-03  1.6298e-03  1.1589e-03  7.2073e-03  1.5546e-03  6.3811e-04  0:02:48 1839
  2581  7.2282e-03  1.6181e-03  1.1710e-03  7.1728e-03  1.5428e-03  6.3253e-04  0:02:15 1838
  2582  7.1824e-03  1.6053e-03  1.1836e-03  7.1260e-03  1.5316e-03  6.2690e-04  0:01:48 1837
  2583  7.1230e-03  1.5914e-03  1.1965e-03  7.0654e-03  1.5219e-03  6.2121e-04  0:01:26 1836

  iter  continuity  x-velocity  y-velocity      energy           k       omega     time/iter
  2584  7.0511e-03  1.5770e-03  1.2085e-03  6.9921e-03  1.5133e-03  6.1586e-04  0:01:09 1835
  2585  6.9679e-03  1.5633e-03  1.2199e-03  6.9073e-03  1.5054e-03  6.1003e-04  0:00:55 1834
  2586  6.8759e-03  1.5503e-03  1.2295e-03  6.8135e-03  1.4984e-03  6.0400e-04  0:06:51 1833
  2587  6.7767e-03  1.5389e-03  1.2384e-03  6.7124e-03  1.4925e-03  5.9717e-04  0:05:28 1832
  2588  6.6694e-03  1.5277e-03  1.2468e-03  6.6030e-03  1.4876e-03  5.9110e-04  0:04:22 1831
  2589  6.5562e-03  1.5200e-03  1.2536e-03  6.4877e-03  1.4831e-03  5.8554e-04  0:03:30 1830
  2590  6.4381e-03  1.5071e-03  1.2583e-03  6.3675e-03  1.4786e-03  5.7970e-04  0:02:48 1829
  2591  6.3183e-03  1.4957e-03  1.2611e-03  6.2455e-03  1.4747e-03  5.7416e-04  0:02:14 1828
  2592  6.1992e-03  1.4846e-03  1.2624e-03  6.1242e-03  1.4718e-03  5.6877e-04  0:01:47 1827
  2593  6.0834e-03  1.4694e-03  1.2623e-03  6.0062e-03  1.4699e-03  5.6353e-04  0:01:26 1826
  2594  5.9741e-03  1.4532e-03  1.2612e-03  5.8948e-03  1.4691e-03  5.5859e-04  0:01:09 1825

  iter  continuity  x-velocity  y-velocity      energy           k       omega     time/iter
  2595  5.8739e-03  1.4379e-03  1.2578e-03  5.7925e-03  1.4688e-03  5.5375e-04  0:00:55 1824
  2596  5.7869e-03  1.4236e-03  1.2519e-03  5.7037e-03  1.4693e-03  5.4919e-04  0:06:48 1823
  2597  5.7163e-03  1.4070e-03  1.2448e-03  5.6313e-03  1.4701e-03  5.4536e-04  0:05:27 1822
  2598  5.6632e-03  1.3915e-03  1.2369e-03  5.5768e-03  1.4715e-03  5.4125e-04  0:04:21 1821
  2599  5.6281e-03  1.3769e-03  1.2279e-03  5.5405e-03  1.4731e-03  5.3711e-04  0:03:29 1820
  2600  5.6113e-03  1.3598e-03  1.2175e-03  5.5228e-03  1.4744e-03  5.3333e-04  0:02:47 1819
  2601  5.6146e-03  1.3440e-03  1.2054e-03  5.5256e-03  1.4756e-03  5.2950e-04  0:02:13 1818
  2602  5.6387e-03  1.3293e-03  1.1925e-03  5.5495e-03  1.4770e-03  5.2546e-04  0:01:47 1817
  2603  5.6819e-03  1.3144e-03  1.1777e-03  5.5929e-03  1.4785e-03  5.2222e-04  0:01:25 1816
  2604  5.7424e-03  1.2994e-03  1.1614e-03  5.6537e-03  1.4797e-03  5.1828e-04  0:01:08 1815
  2605  5.8174e-03  1.2838e-03  1.1440e-03  5.7294e-03  1.4806e-03  5.1467e-04  0:00:55 1814

  iter  continuity  x-velocity  y-velocity      energy           k       omega     time/iter
  2606  5.9032e-03  1.2673e-03  1.1260e-03  5.8161e-03  1.4812e-03  5.1160e-04  0:06:46 1813
  2607  5.9968e-03  1.2509e-03  1.1074e-03  5.9108e-03  1.4819e-03  5.0812e-04  0:05:25 1812
  2608  6.0953e-03  1.2338e-03  1.0880e-03  6.0105e-03  1.4825e-03  5.0437e-04  0:04:20 1811
  2609  6.1945e-03  1.2175e-03  1.0679e-03  6.1109e-03  1.4827e-03  5.0014e-04  0:03:28 1810
  2610  6.2906e-03  1.2028e-03  1.0476e-03  6.2085e-03  1.4827e-03  4.9598e-04  0:02:46 1809
  2611  6.3812e-03  1.1887e-03  1.0271e-03  6.3006e-03  1.4823e-03  4.9248e-04  0:02:13 1808
  2612  6.4619e-03  1.1783e-03  1.0066e-03  6.3829e-03  1.4817e-03  4.8869e-04  0:01:46 1807
  2613  6.5298e-03  1.1681e-03  9.8611e-04  6.4524e-03  1.4804e-03  4.8469e-04  0:01:25 1806
  2614  6.5826e-03  1.1573e-03  9.6645e-04  6.5069e-03  1.4786e-03  4.8053e-04  0:01:08 1805
  2615  6.6169e-03  1.1439e-03  9.4776e-04  6.5428e-03  1.4758e-03  4.7656e-04  0:00:54 1804
  2616  6.6320e-03  1.1298e-03  9.3003e-04  6.5597e-03  1.4722e-03  4.7257e-04  0:06:44 1803

  iter  continuity  x-velocity  y-velocity      energy           k       omega     time/iter
  2617  6.6265e-03  1.1158e-03  9.1343e-04  6.5559e-03  1.4683e-03  4.6842e-04  0:05:23 1802
  2618  6.5996e-03  1.1036e-03  8.9813e-04  6.5308e-03  1.4636e-03  4.6446e-04  0:04:18 1801
  2619  6.5541e-03  1.0936e-03  8.8457e-04  6.4871e-03  1.4580e-03  4.6043e-04  0:03:26 1800
  2620  6.4899e-03  1.0846e-03  8.7293e-04  6.4247e-03  1.4517e-03  4.5687e-04  0:02:45 1799
  2621  6.4014e-03  1.0756e-03  8.6337e-04  6.3381e-03  1.4452e-03  4.5334e-04  0:02:12 1798
  2622  6.2828e-03  1.0661e-03  8.5605e-04  6.2213e-03  1.4388e-03  4.4997e-04  0:01:46 1797
  2623  6.1464e-03  1.0603e-03  8.5056e-04  6.0868e-03  1.4316e-03  4.4674e-04  0:01:24 1796
  2624  5.9963e-03  1.0570e-03  8.4657e-04  5.9384e-03  1.4243e-03  4.4347e-04  0:01:07 1795
  2625  5.8339e-03  1.0558e-03  8.4406e-04  5.7778e-03  1.4165e-03  4.3987e-04  0:00:54 1794
  2626  5.6621e-03  1.0550e-03  8.4298e-04  5.6077e-03  1.4083e-03  4.3615e-04  0:06:42 1793
  2627  5.4845e-03  1.0539e-03  8.4299e-04  5.4318e-03  1.3995e-03  4.3281e-04  0:05:21 1792

  iter  continuity  x-velocity  y-velocity      energy           k       omega     time/iter
  2628  5.3065e-03  1.0535e-03  8.4389e-04  5.2554e-03  1.3899e-03  4.3029e-04  0:04:17 1791
  2629  5.1317e-03  1.0543e-03  8.4538e-04  5.0821e-03  1.3799e-03  4.2753e-04  0:03:25 1790
  2630  4.9632e-03  1.0536e-03  8.4707e-04  4.9151e-03  1.3693e-03  4.2473e-04  0:02:44 1789
  2631  4.8051e-03  1.0495e-03  8.4882e-04  4.7585e-03  1.3583e-03  4.2208e-04  0:02:11 1788
  2632  4.6632e-03  1.0434e-03  8.5050e-04  4.6180e-03  1.3469e-03  4.1872e-04  0:01:45 1787
  2633  4.5409e-03  1.0403e-03  8.5182e-04  4.4969e-03  1.3353e-03  4.1633e-04  0:01:24 1786
  2634  4.4389e-03  1.0348e-03  8.5230e-04  4.3961e-03  1.3233e-03  4.1371e-04  0:01:07 1785
  2635  4.3560e-03  1.0331e-03  8.5213e-04  4.3142e-03  1.3113e-03  4.1065e-04  0:06:50 1784
  2636  4.2916e-03  1.0307e-03  8.5117e-04  4.2508e-03  1.2992e-03  4.0817e-04  0:05:28 1783
  2637  4.2544e-03  1.0318e-03  8.4946e-04  4.2143e-03  1.2872e-03  4.0608e-04  0:04:22 1782
  2638  4.2397e-03  1.0334e-03  8.4710e-04  4.2003e-03  1.2754e-03  4.0386e-04  0:03:30 1781

  iter  continuity  x-velocity  y-velocity      energy           k       omega     time/iter
  2639  4.2423e-03  1.0332e-03  8.4397e-04  4.2032e-03  1.2639e-03  4.0177e-04  0:02:48 1780
  2640  4.2577e-03  1.0268e-03  8.4050e-04  4.2188e-03  1.2528e-03  3.9972e-04  0:02:14 1779
  2641  4.2822e-03  1.0188e-03  8.3598e-04  4.2432e-03  1.2419e-03  3.9742e-04  0:01:47 1778
  2642  4.3111e-03  1.0123e-03  8.3065e-04  4.2718e-03  1.2312e-03  3.9586e-04  0:01:26 1777
  2643  4.3407e-03  1.0076e-03  8.2516e-04  4.3010e-03  1.2208e-03  3.9379e-04  0:01:09 1776
  2644  4.3682e-03  1.0082e-03  8.1832e-04  4.3280e-03  1.2108e-03  3.9197e-04  0:00:55 1775
  2645  4.3908e-03  1.0125e-03  8.1059e-04  4.3500e-03  1.2008e-03  3.9085e-04  0:06:39 1774
  2646  4.4057e-03  1.0155e-03  8.0248e-04  4.3643e-03  1.1910e-03  3.8980e-04  0:05:19 1773
  2647  4.4086e-03  1.0190e-03  7.9352e-04  4.3664e-03  1.1822e-03  3.8903e-04  0:04:15 1772
  2648  4.3958e-03  1.0155e-03  7.8384e-04  4.3530e-03  1.1740e-03  3.8845e-04  0:03:24 1771
  2649  4.3678e-03  1.0118e-03  7.7357e-04  4.3242e-03  1.1666e-03  3.8778e-04  0:02:43 1770

  iter  continuity  x-velocity  y-velocity      energy           k       omega     time/iter
  2650  4.3243e-03  1.0098e-03  7.6278e-04  4.2800e-03  1.1597e-03  3.8722e-04  0:02:10 1769
  2651  4.2671e-03  1.0163e-03  7.5158e-04  4.2221e-03  1.1530e-03  3.8677e-04  0:01:44 1768
  2652  4.1971e-03  1.0342e-03  7.4029e-04  4.1515e-03  1.1468e-03  3.8667e-04  0:01:23 1767
  2653  4.1119e-03  1.0453e-03  7.2868e-04  4.0657e-03  1.1406e-03  3.8680e-04  0:07:00 1766
  2654  4.0125e-03  1.0414e-03  7.1686e-04  3.9658e-03  1.1346e-03  3.8678e-04  0:05:36 1765
  2655  3.9007e-03  1.0276e-03  7.0470e-04  3.8537e-03  1.1285e-03  3.8665e-04  0:04:28 1764
  2656  3.7797e-03  1.0160e-03  6.9218e-04  3.7325e-03  1.1221e-03  3.8655e-04  0:03:35 1763
  2657  3.6527e-03  1.0040e-03  6.7945e-04  3.6054e-03  1.1159e-03  3.8634e-04  0:02:52 1762
  2658  3.5231e-03  9.8909e-04  6.6683e-04  3.4758e-03  1.1092e-03  3.8601e-04  0:02:17 1761
  2659  3.3951e-03  9.7906e-04  6.5413e-04  3.3478e-03  1.1027e-03  3.8556e-04  0:01:50 1760
  2660  3.2723e-03  9.7232e-04  6.4153e-04  3.2250e-03  1.0962e-03  3.8505e-04  0:01:28 1759

  iter  continuity  x-velocity  y-velocity      energy           k       omega     time/iter
  2661  3.1598e-03  9.6866e-04  6.2894e-04  3.1126e-03  1.0897e-03  3.8454e-04  0:01:10 1758
  2662  3.0614e-03  9.6836e-04  6.1765e-04  3.0144e-03  1.0841e-03  3.8403e-04  0:06:47 1757
  2663  2.9800e-03  9.6995e-04  6.0691e-04  2.9333e-03  1.0787e-03  3.8307e-04  0:05:26 1756
  2664  2.9197e-03  9.6960e-04  5.9546e-04  2.8734e-03  1.0740e-03  3.8141e-04  0:04:20 1755
  2665  2.8838e-03  9.6812e-04  5.8462e-04  2.8379e-03  1.0693e-03  3.8032e-04  0:03:28 1754
  2666  2.8726e-03  9.6627e-04  5.7397e-04  2.8272e-03  1.0651e-03  3.7967e-04  0:02:47 1753
  2667  2.8866e-03  9.6478e-04  5.6368e-04  2.8418e-03  1.0610e-03  3.7791e-04  0:02:13 1752
  2668  2.9238e-03  9.6272e-04  5.5369e-04  2.8796e-03  1.0570e-03  3.7670e-04  0:01:46 1751
  2669  2.9802e-03  9.5844e-04  5.4436e-04  2.9366e-03  1.0533e-03  3.7573e-04  0:01:25 1750
  2670  3.0523e-03  9.5006e-04  5.3512e-04  3.0093e-03  1.0495e-03  3.7360e-04  0:01:08 1749
  2671  3.1368e-03  9.4358e-04  5.2638e-04  3.0943e-03  1.0463e-03  3.7264e-04  0:00:54 1748

  iter  continuity  x-velocity  y-velocity      energy           k       omega     time/iter
  2672  3.2298e-03  9.3637e-04  5.1836e-04  3.1877e-03  1.0432e-03  3.7127e-04  0:06:33 1747
  2673  3.3277e-03  9.3334e-04  5.1062e-04  3.2860e-03  1.0402e-03  3.6960e-04  0:05:14 1746
  2674  3.4268e-03  9.3317e-04  5.0405e-04  3.3854e-03  1.0371e-03  3.6791e-04  0:04:11 1745
  2675  3.5237e-03  9.3267e-04  4.9781e-04  3.4825e-03  1.0340e-03  3.6642e-04  0:03:21 1744
  2676  3.6144e-03  9.2830e-04  4.9226e-04  3.5735e-03  1.0307e-03  3.6535e-04  0:02:41 1743
  2677  3.6979e-03  9.2353e-04  4.8733e-04  3.6573e-03  1.0278e-03  3.6432e-04  0:02:08 1742
  2678  3.7725e-03  9.1826e-04  4.8297e-04  3.7320e-03  1.0251e-03  3.6308e-04  0:01:43 1741
  2679  3.8365e-03  9.1184e-04  4.7925e-04  3.7963e-03  1.0228e-03  3.6199e-04  0:01:22 1740
  2680  3.8897e-03  9.0218e-04  4.7599e-04  3.8497e-03  1.0208e-03  3.6111e-04  0:01:06 1739
  2681  3.9317e-03  8.9504e-04  4.7312e-04  3.8920e-03  1.0192e-03  3.6035e-04  0:00:52 1738
  2682  3.9625e-03  8.8939e-04  4.7051e-04  3.9232e-03  1.0178e-03  3.5956e-04  0:06:29 1737

  iter  continuity  x-velocity  y-velocity      energy           k       omega     time/iter
  2683  3.9819e-03  8.8231e-04  4.6822e-04  3.9430e-03  1.0169e-03  3.5876e-04  0:05:11 1736
  2684  3.9897e-03  8.7313e-04  4.6536e-04  3.9512e-03  1.0169e-03  3.5802e-04  0:04:09 1735
  2685  3.9868e-03  8.6483e-04  4.6250e-04  3.9486e-03  1.0171e-03  3.5722e-04  0:03:19 1734
  2686  3.9742e-03  8.5813e-04  4.5974e-04  3.9364e-03  1.0178e-03  3.5699e-04  0:02:39 1733
  2687  3.9534e-03  8.5380e-04  4.5708e-04  3.9160e-03  1.0185e-03  3.5661e-04  0:02:07 1732
  2688  3.9252e-03  8.4906e-04  4.5443e-04  3.8881e-03  1.0192e-03  3.5594e-04  0:01:42 1731
  2689  3.8907e-03  8.4620e-04  4.5171e-04  3.8540e-03  1.0199e-03  3.5522e-04  0:01:21 1730
  2690  3.8512e-03  8.4435e-04  4.4888e-04  3.8149e-03  1.0204e-03  3.5446e-04  0:01:05 1729
  2691  3.8076e-03  8.4126e-04  4.4593e-04  3.7716e-03  1.0208e-03  3.5367e-04  0:00:52 1728
  2692  3.7613e-03  8.3760e-04  4.4271e-04  3.7256e-03  1.0213e-03  3.5298e-04  0:00:42 1727
  2693  3.7135e-03  8.3136e-04  4.3945e-04  3.6780e-03  1.0213e-03  3.5224e-04  0:06:18 1726

  iter  continuity  x-velocity  y-velocity      energy           k       omega     time/iter
  2694  3.6657e-03  8.2217e-04  4.3581e-04  3.6304e-03  1.0210e-03  3.5125e-04  0:05:03 1725
  2695  3.6191e-03  8.1332e-04  4.3186e-04  3.5840e-03  1.0204e-03  3.4974e-04  0:04:02 1724
  2696  3.5746e-03  8.0538e-04  4.2778e-04  3.5396e-03  1.0197e-03  3.4861e-04  0:03:13 1723
  2697  3.5330e-03  7.9833e-04  4.2359e-04  3.4981e-03  1.0186e-03  3.4756e-04  0:02:35 1722
  2698  3.4950e-03  7.9194e-04  4.1925e-04  3.4602e-03  1.0169e-03  3.4626e-04  0:02:04 1721
  2699  3.4612e-03  7.8602e-04  4.1493e-04  3.4263e-03  1.0150e-03  3.4469e-04  0:01:39 1720
  2700  3.4312e-03  7.8055e-04  4.1048e-04  3.3963e-03  1.0133e-03  3.4309e-04  0:01:19 1719
  2701  3.4054e-03  7.7448e-04  4.0583e-04  3.3704e-03  1.0116e-03  3.4161e-04  0:01:03 1718
  2702  3.3841e-03  7.6937e-04  4.0121e-04  3.3492e-03  1.0097e-03  3.3987e-04  0:00:51 1717
  2703  3.3677e-03  7.6531e-04  3.9652e-04  3.3326e-03  1.0077e-03  3.3781e-04  0:06:24 1716
  2704  3.3555e-03  7.6327e-04  3.9177e-04  3.3203e-03  1.0059e-03  3.3579e-04  0:05:07 1715

  iter  continuity  x-velocity  y-velocity      energy           k       omega     time/iter
  2705  3.3470e-03  7.6104e-04  3.8709e-04  3.3116e-03  1.0041e-03  3.3427e-04  0:04:05 1714
  2706  3.3414e-03  7.6038e-04  3.8231e-04  3.3058e-03  1.0021e-03  3.3229e-04  0:03:16 1713
  2707  3.3386e-03  7.6402e-04  3.7780e-04  3.3028e-03  9.9995e-04  3.3015e-04  0:02:37 1712
  2708  3.3374e-03  7.6439e-04  3.7308e-04  3.3015e-03  9.9758e-04  3.2806e-04  0:02:05 1711
  2709  3.3371e-03  7.5990e-04  3.6790e-04  3.3010e-03  9.9511e-04  3.2592e-04  0:01:40 1710
  2710  3.3370e-03  7.5568e-04  3.6291e-04  3.3008e-03  9.9258e-04  3.2379e-04  0:01:20 1709
  2711  3.3365e-03  7.4687e-04  3.5856e-04  3.3002e-03  9.8992e-04  3.2165e-04  0:01:04 1708
  2712  3.3354e-03  7.4123e-04  3.5462e-04  3.2989e-03  9.8700e-04  3.1923e-04  0:00:51 1707
  2713  3.3324e-03  7.3355e-04  3.5093e-04  3.2958e-03  9.8394e-04  3.1644e-04  0:06:22 1706
  2714  3.3268e-03  7.2429e-04  3.4691e-04  3.2900e-03  9.8087e-04  3.1339e-04  0:05:06 1705
  2715  3.3181e-03  7.1671e-04  3.4303e-04  3.2813e-03  9.7770e-04  3.1047e-04  0:04:04 1704

  iter  continuity  x-velocity  y-velocity      energy           k       omega     time/iter
  2716  3.3058e-03  7.1074e-04  3.3936e-04  3.2688e-03  9.7430e-04  3.0780e-04  0:03:15 1703
  2717  3.2890e-03  7.0358e-04  3.3601e-04  3.2519e-03  9.7038e-04  3.0500e-04  0:02:36 1702
  2718  3.2677e-03  6.9830e-04  3.3305e-04  3.2306e-03  9.6627e-04  3.0214e-04  0:02:05 1701
  2719  3.2417e-03  6.9624e-04  3.3052e-04  3.2044e-03  9.6173e-04  2.9933e-04  0:01:40 1700
  2720  3.2105e-03  6.9405e-04  3.2833e-04  3.1731e-03  9.5691e-04  2.9663e-04  0:01:20 1699
  2721  3.1739e-03  6.9473e-04  3.2640e-04  3.1364e-03  9.5178e-04  2.9399e-04  0:06:43 1698
  2722  3.1326e-03  7.0546e-04  3.2523e-04  3.0949e-03  9.4625e-04  2.9142e-04  0:05:23 1697
  2723  3.0865e-03  7.2230e-04  3.2452e-04  3.0486e-03  9.4054e-04  2.8888e-04  0:04:18 1696
  2724  3.0343e-03  7.2480e-04  3.2396e-04  2.9963e-03  9.3466e-04  2.8644e-04  0:03:26 1695
  2725  2.9773e-03  7.2201e-04  3.2366e-04  2.9390e-03  9.2869e-04  2.8418e-04  0:02:45 1694
  2726  2.9161e-03  7.1997e-04  3.2363e-04  2.8776e-03  9.2273e-04  2.8206e-04  0:02:12 1693

  iter  continuity  x-velocity  y-velocity      energy           k       omega     time/iter
  2727  2.8515e-03  7.2204e-04  3.2389e-04  2.8128e-03  9.1677e-04  2.8005e-04  0:01:45 1692
  2728  2.7840e-03  7.2560e-04  3.2430e-04  2.7450e-03  9.1066e-04  2.7822e-04  0:01:24 1691
  2729  2.7147e-03  7.3095e-04  3.2481e-04  2.6754e-03  9.0475e-04  2.7661e-04  0:01:07 1690
  2730  2.6439e-03  7.3219e-04  3.2561e-04  2.6042e-03  8.9895e-04  2.7509e-04  0:00:54 1689
  2731  2.5725e-03  7.2593e-04  3.2628e-04  2.5325e-03  8.9347e-04  2.7369e-04  0:06:21 1688
  2732  2.5030e-03  7.3098e-04  3.2665e-04  2.4625e-03  8.8821e-04  2.7237e-04  0:05:04 1687
  2733  2.4357e-03  7.3621e-04  3.2707e-04  2.3948e-03  8.8293e-04  2.7120e-04  0:04:03 1686
  2734  2.3720e-03  7.4207e-04  3.2754e-04  2.3306e-03  8.7770e-04  2.7021e-04  0:03:15 1685
  2735  2.3134e-03  7.4867e-04  3.2827e-04  2.2714e-03  8.7281e-04  2.6951e-04  0:02:36 1684
  2736  2.2603e-03  7.5220e-04  3.2891e-04  2.2178e-03  8.6798e-04  2.6911e-04  0:02:04 1683
  2737  2.2128e-03  7.4557e-04  3.2959e-04  2.1700e-03  8.6309e-04  2.6872e-04  0:01:39 1682

  iter  continuity  x-velocity  y-velocity      energy           k       omega     time/iter
  2738  2.1744e-03  7.4439e-04  3.3122e-04  2.1313e-03  8.5807e-04  2.6877e-04  0:01:19 1681
  2739  2.1448e-03  7.5041e-04  3.3136e-04  2.1014e-03  8.5290e-04  2.6887e-04  0:01:04 1680
  2740  2.1231e-03  7.5483e-04  3.3116e-04  2.0793e-03  8.4749e-04  2.6926e-04  0:00:51 1679
  2741  2.1092e-03  7.6348e-04  3.2990e-04  2.0652e-03  8.4193e-04  2.6995e-04  0:00:41 1678
  2742  2.1031e-03  7.7855e-04  3.2823e-04  2.0588e-03  8.3604e-04  2.7067e-04  0:06:08 1677
  2743  2.1032e-03  7.9279e-04  3.2688e-04  2.0588e-03  8.2998e-04  2.7121e-04  0:04:54 1676
  2744  2.1095e-03  8.1150e-04  3.2593e-04  2.0650e-03  8.2373e-04  2.7237e-04  0:03:55 1675
  2745  2.1220e-03  8.3974e-04  3.2527e-04  2.0773e-03  8.1724e-04  2.7379e-04  0:03:08 1674
  2746  2.1368e-03  8.6302e-04  3.2454e-04  2.0920e-03  8.1062e-04  2.7520e-04  0:02:30 1673
  2747  2.1512e-03  8.6168e-04  3.2392e-04  2.1064e-03  8.0393e-04  2.7670e-04  0:02:00 1672
  2748  2.1683e-03  8.5819e-04  3.2439e-04  2.1232e-03  7.9713e-04  2.7832e-04  0:01:36 1671

  iter  continuity  x-velocity  y-velocity      energy           k       omega     time/iter
  2749  2.1874e-03  8.6862e-04  3.2536e-04  2.1419e-03  7.9022e-04  2.7993e-04  0:01:17 1670
  2750  2.2061e-03  8.7896e-04  3.2620e-04  2.1601e-03  7.8319e-04  2.8139e-04  0:01:01 1669
  2751  2.2243e-03  8.9601e-04  3.2541e-04  2.1778e-03  7.7606e-04  2.8297e-04  0:06:23 1668
  2752  2.2367e-03  8.8135e-04  3.2596e-04  2.1902e-03  7.6884e-04  2.8461e-04  0:05:06 1667
  2753  2.2444e-03  8.3390e-04  3.2397e-04  2.1979e-03  7.6161e-04  2.8607e-04  0:04:05 1666
  2754  2.2546e-03  8.1963e-04  3.2248e-04  2.2081e-03  7.5459e-04  2.8744e-04  0:03:16 1665
  2755  2.2643e-03  8.1845e-04  3.2205e-04  2.2175e-03  7.4761e-04  2.8917e-04  0:02:36 1664
  2756  2.2734e-03  8.2383e-04  3.2151e-04  2.2262e-03  7.4080e-04  2.9101e-04  0:02:05 1663
  2757  2.2818e-03  8.3443e-04  3.1967e-04  2.2338e-03  7.3412e-04  2.9286e-04  0:01:40 1662
  2758  2.2895e-03  8.4163e-04  3.1868e-04  2.2406e-03  7.2744e-04  2.9447e-04  0:01:20 1661
  2759  2.2964e-03  8.4633e-04  3.1813e-04  2.2466e-03  7.2073e-04  2.9587e-04  0:01:04 1660

  iter  continuity  x-velocity  y-velocity      energy           k       omega     time/iter
  2760  2.3040e-03  8.5463e-04  3.1799e-04  2.2532e-03  7.1425e-04  2.9711e-04  0:00:51 1659
  2761  2.3126e-03  8.6699e-04  3.1833e-04  2.2607e-03  7.0785e-04  2.9802e-04  0:00:41 1658
  2762  2.3224e-03  8.8194e-04  3.1844e-04  2.2694e-03  7.0144e-04  2.9927e-04  0:06:04 1657
  2763  2.3313e-03  8.8026e-04  3.1842e-04  2.2775e-03  6.9518e-04  3.0066e-04  0:04:51 1656
  2764  2.3435e-03  8.7790e-04  3.2003e-04  2.2888e-03  6.8895e-04  3.0188e-04  0:03:53 1655
  2765  2.3594e-03  8.8520e-04  3.2082e-04  2.3039e-03  6.8273e-04  3.0312e-04  0:03:06 1654
  2766  2.3784e-03  8.9456e-04  3.2070e-04  2.3221e-03  6.7664e-04  3.0411e-04  0:02:29 1653
  2767  2.4006e-03  8.9447e-04  3.2062e-04  2.3435e-03  6.7073e-04  3.0491e-04  0:01:59 1652
  2768  2.4274e-03  8.9838e-04  3.2021e-04  2.3694e-03  6.6506e-04  3.0552e-04  0:01:35 1651
  2769  2.4588e-03  9.0972e-04  3.1970e-04  2.4001e-03  6.5966e-04  3.0604e-04  0:01:16 1650
  2770  2.4925e-03  9.1758e-04  3.2003e-04  2.4332e-03  6.5480e-04  3.0637e-04  0:01:01 1649

  iter  continuity  x-velocity  y-velocity      energy           k       omega     time/iter
  2771  2.5291e-03  9.1481e-04  3.1983e-04  2.4693e-03  6.5034e-04  3.0690e-04  0:00:49 1648
  2772  2.5694e-03  9.1209e-04  3.1998e-04  2.5091e-03  6.4636e-04  3.0725e-04  0:06:08 1647
  2773  2.6120e-03  9.1210e-04  3.1983e-04  2.5512e-03  6.4275e-04  3.0751e-04  0:04:54 1646
  2774  2.6578e-03  9.2709e-04  3.1857e-04  2.5964e-03  6.3943e-04  3.0773e-04  0:03:55 1645
  2775  2.7054e-03  9.4675e-04  3.1776e-04  2.6434e-03  6.3649e-04  3.0775e-04  0:03:08 1644
  2776  2.7530e-03  9.7460e-04  3.1803e-04  2.6906e-03  6.3392e-04  3.0768e-04  0:02:30 1643
  2777  2.7981e-03  9.8224e-04  3.1516e-04  2.7354e-03  6.3167e-04  3.0763e-04  0:02:00 1642
  2778  2.8446e-03  9.9830e-04  3.1237e-04  2.7817e-03  6.2968e-04  3.0757e-04  0:01:36 1641
  2779  2.8891e-03  9.9986e-04  3.1395e-04  2.8255e-03  6.2798e-04  3.0744e-04  0:06:45 1640
  2780  2.9311e-03  9.9677e-04  3.1619e-04  2.8669e-03  6.2654e-04  3.0718e-04  0:05:24 1639
  2781  2.9712e-03  9.8231e-04  3.1354e-04  2.9063e-03  6.2536e-04  3.0678e-04  0:04:19 1638

  iter  continuity  x-velocity  y-velocity      energy           k       omega     time/iter
  2782  3.0111e-03  1.0075e-03  3.1526e-04  2.9453e-03  6.2439e-04  3.0633e-04  0:03:27 1637
  2783  3.0446e-03  1.0073e-03  3.1572e-04  2.9783e-03  6.2373e-04  3.0575e-04  0:02:45 1636
  2784  3.0694e-03  9.6600e-04  3.1306e-04  3.0031e-03  6.2353e-04  3.0505e-04  0:02:12 1635
  2785  3.0926e-03  9.3037e-04  3.0707e-04  3.0262e-03  6.2352e-04  3.0428e-04  0:01:46 1634
  2786  3.1151e-03  9.1891e-04  3.0299e-04  3.0483e-03  6.2367e-04  3.0323e-04  0:01:25 1633
  2787  3.1354e-03  9.1226e-04  3.0189e-04  3.0680e-03  6.2399e-04  3.0209e-04  0:01:08 1632
  2788  3.1526e-03  9.0691e-04  3.0241e-04  3.0844e-03  6.2440e-04  3.0099e-04  0:00:54 1631
  2789  3.1648e-03  8.9348e-04  3.0282e-04  3.0960e-03  6.2491e-04  2.9972e-04  0:06:09 1630
  2790  3.1747e-03  8.8017e-04  3.0242e-04  3.1054e-03  6.2552e-04  2.9823e-04  0:04:55 1629
  2791  3.1826e-03  8.7428e-04  3.0386e-04  3.1127e-03  6.2614e-04  2.9670e-04  0:03:56 1628
  2792  3.1879e-03  8.6379e-04  3.0597e-04  3.1172e-03  6.2687e-04  2.9523e-04  0:03:09 1627

  iter  continuity  x-velocity  y-velocity      energy           k       omega     time/iter
  2793  3.1913e-03  8.6281e-04  3.0437e-04  3.1198e-03  6.2764e-04  2.9365e-04  0:02:31 1626
  2794  3.1933e-03  8.6361e-04  3.0519e-04  3.1209e-03  6.2847e-04  2.9195e-04  0:02:01 1625
  2795  3.1948e-03  8.7978e-04  3.0733e-04  3.1215e-03  6.2915e-04  2.9037e-04  0:01:36 1624
  2796  3.1923e-03  8.7577e-04  3.0947e-04  3.1185e-03  6.2990e-04  2.8890e-04  0:01:17 1623
  2797  3.1896e-03  8.6261e-04  3.1329e-04  3.1150e-03  6.3060e-04  2.8746e-04  0:01:02 1622
  2798  3.1863e-03  8.6016e-04  3.1756e-04  3.1111e-03  6.3136e-04  2.8625e-04  0:00:49 1621
  2799  3.1821e-03  8.6430e-04  3.2059e-04  3.1065e-03  6.3196e-04  2.8496e-04  0:06:03 1620
  2800  3.1790e-03  8.6729e-04  3.2300e-04  3.1028e-03  6.3255e-04  2.8375e-04  0:04:51 1619
  2801  3.1769e-03  8.9158e-04  3.2460e-04  3.1002e-03  6.3308e-04  2.8275e-04  0:03:52 1618
  2802  3.1733e-03  9.0628e-04  3.2813e-04  3.0962e-03  6.3356e-04  2.8175e-04  0:03:06 1617
  2803  3.1695e-03  8.9699e-04  3.3358e-04  3.0922e-03  6.3394e-04  2.8081e-04  0:02:28 1616

  iter  continuity  x-velocity  y-velocity      energy           k       omega     time/iter
  2804  3.1677e-03  9.1068e-04  3.3655e-04  3.0902e-03  6.3427e-04  2.7998e-04  0:01:59 1615
  2805  3.1663e-03  9.2658e-04  3.3911e-04  3.0885e-03  6.3445e-04  2.7911e-04  0:01:35 1614
  2806  3.1632e-03  9.3511e-04  3.4174e-04  3.0853e-03  6.3453e-04  2.7831e-04  0:01:16 1613
  2807  3.1613e-03  9.1920e-04  3.4466e-04  3.0833e-03  6.3455e-04  2.7766e-04  0:01:01 1612
  2808  3.1619e-03  9.1174e-04  3.4581e-04  3.0833e-03  6.3437e-04  2.7698e-04  0:00:49 1611
  2809  3.1615e-03  8.8989e-04  3.4851e-04  3.0825e-03  6.3418e-04  2.7638e-04  0:00:39 1610
  2810  3.1644e-03  9.0051e-04  3.5167e-04  3.0847e-03  6.3397e-04  2.7589e-04  0:05:53 1609
  2811  3.1673e-03  9.1699e-04  3.5353e-04  3.0874e-03  6.3373e-04  2.7528e-04  0:04:42 1608
  2812  3.1617e-03  8.7767e-04  3.5262e-04  3.0827e-03  6.3331e-04  2.7466e-04  0:03:46 1607
  2813  3.1615e-03  8.4360e-04  3.5160e-04  3.0830e-03  6.3276e-04  2.7401e-04  0:03:00 1606
  2814  3.1620e-03  8.3377e-04  3.5059e-04  3.0838e-03  6.3206e-04  2.7333e-04  0:02:24 1605

  iter  continuity  x-velocity  y-velocity      energy           k       omega     time/iter
  2815  3.1632e-03  8.3245e-04  3.4837e-04  3.0852e-03  6.3131e-04  2.7258e-04  0:01:55 1604
  2816  3.1656e-03  8.3064e-04  3.4827e-04  3.0875e-03  6.3052e-04  2.7203e-04  0:01:32 1603
  2817  3.1684e-03  8.4007e-04  3.4943e-04  3.0902e-03  6.2964e-04  2.7144e-04  0:01:14 1602
  2818  3.1691e-03  8.1946e-04  3.5129e-04  3.0911e-03  6.2863e-04  2.7092e-04  0:00:59 1601
  2819  3.1718e-03  8.1713e-04  3.5322e-04  3.0940e-03  6.2767e-04  2.7053e-04  0:00:47 1600
  2820  3.1744e-03  8.1269e-04  3.5540e-04  3.0966e-03  6.2673e-04  2.7014e-04  0:05:57 1599
  2821  3.1770e-03  8.1493e-04  3.5452e-04  3.0994e-03  6.2578e-04  2.6978e-04  0:04:46 1598
  2822  3.1805e-03  8.2706e-04  3.5291e-04  3.1028e-03  6.2477e-04  2.6954e-04  0:03:48 1597
  2823  3.1847e-03  8.4878e-04  3.5254e-04  3.1071e-03  6.2375e-04  2.6941e-04  0:03:03 1596
  2824  3.1872e-03  8.5729e-04  3.5327e-04  3.1098e-03  6.2273e-04  2.6943e-04  0:02:26 1595
  2825  3.1902e-03  8.5639e-04  3.5620e-04  3.1133e-03  6.2172e-04  2.6961e-04  0:01:57 1594

  iter  continuity  x-velocity  y-velocity      energy           k       omega     time/iter
  2826  3.1925e-03  8.3858e-04  3.6006e-04  3.1158e-03  6.2067e-04  2.6977e-04  0:01:33 1593
  2827  3.1952e-03  8.3712e-04  3.6025e-04  3.1186e-03  6.1958e-04  2.7020e-04  0:01:15 1592
  2828  3.1990e-03  8.4822e-04  3.6007e-04  3.1227e-03  6.1851e-04  2.7065e-04  0:01:00 1591
  2829  3.2039e-03  8.8195e-04  3.6027e-04  3.1280e-03  6.1736e-04  2.7112e-04  0:00:48 1590
  2830  3.2078e-03  9.1100e-04  3.6024e-04  3.1323e-03  6.1617e-04  2.7153e-04  0:05:56 1589
  2831  3.2105e-03  9.1360e-04  3.6308e-04  3.1353e-03  6.1495e-04  2.7205e-04  0:04:45 1588
  2832  3.2126e-03  9.1306e-04  3.6276e-04  3.1376e-03  6.1375e-04  2.7260e-04  0:03:48 1587
  2833  3.2122e-03  8.9603e-04  3.6019e-04  3.1373e-03  6.1252e-04  2.7313e-04  0:03:02 1586
  2834  3.2127e-03  9.1112e-04  3.5909e-04  3.1383e-03  6.1128e-04  2.7361e-04  0:02:25 1585
  2835  3.2117e-03  9.3556e-04  3.6093e-04  3.1377e-03  6.0998e-04  2.7391e-04  0:01:56 1584
  2836  3.2091e-03  9.2873e-04  3.5813e-04  3.1351e-03  6.0863e-04  2.7411e-04  0:01:33 1583

  iter  continuity  x-velocity  y-velocity      energy           k       omega     time/iter
  2837  3.2079e-03  9.3819e-04  3.5858e-04  3.1339e-03  6.0728e-04  2.7427e-04  0:01:14 1582
  2838  3.2038e-03  9.3925e-04  3.6073e-04  3.1298e-03  6.0590e-04  2.7439e-04  0:00:59 1581
  2839  3.1980e-03  9.4368e-04  3.6005e-04  3.1238e-03  6.0435e-04  2.7424e-04  0:06:04 1580
  2840  3.1905e-03  9.4372e-04  3.5591e-04  3.1165e-03  6.0260e-04  2.7397e-04  0:04:51 1579
  2841  3.1728e-03  8.9184e-04  3.5074e-04  3.0994e-03  6.0084e-04  2.7355e-04  0:03:52 1578
  2842  3.1565e-03  8.5238e-04  3.4470e-04  3.0838e-03  5.9906e-04  2.7301e-04  0:03:06 1577
  2843  3.1403e-03  8.3908e-04  3.3693e-04  3.0682e-03  5.9752e-04  2.7241e-04  0:02:29 1576
  2844  3.1237e-03  8.3164e-04  3.3483e-04  3.0517e-03  5.9601e-04  2.7197e-04  0:01:59 1575
  2845  3.1058e-03  8.2480e-04  3.3413e-04  3.0336e-03  5.9454e-04  2.7146e-04  0:01:35 1574
  2846  3.0847e-03  8.1253e-04  3.3334e-04  3.0125e-03  5.9322e-04  2.7084e-04  0:01:16 1573
  2847  3.0627e-03  8.0762e-04  3.3152e-04  2.9906e-03  5.9209e-04  2.7011e-04  0:01:01 1572

  iter  continuity  x-velocity  y-velocity      energy           k       omega     time/iter
  2848  3.0397e-03  8.1156e-04  3.2961e-04  2.9675e-03  5.9115e-04  2.6936e-04  0:00:49 1571
  2849  3.0150e-03  8.0749e-04  3.2751e-04  2.9425e-03  5.9036e-04  2.6859e-04  0:00:39 1570
  2850  2.9897e-03  8.1048e-04  3.2192e-04  2.9169e-03  5.8975e-04  2.6773e-04  0:05:45 1569
  2851  2.9649e-03  8.2445e-04  3.1969e-04  2.8917e-03  5.8925e-04  2.6683e-04  0:04:36 1568
  2852  2.9399e-03  8.5004e-04  3.1898e-04  2.8663e-03  5.8872e-04  2.6590e-04  0:03:40 1567
  2853  2.9091e-03  8.4542e-04  3.1608e-04  2.8356e-03  5.8811e-04  2.6507e-04  0:02:56 1566
  2854  2.8781e-03  8.3063e-04  3.1526e-04  2.8048e-03  5.8737e-04  2.6422e-04  0:02:21 1565
  2855  2.8463e-03  8.1719e-04  3.1637e-04  2.7730e-03  5.8651e-04  2.6332e-04  0:01:53 1564
  2856  2.8166e-03  8.2682e-04  3.1260e-04  2.7432e-03  5.8552e-04  2.6243e-04  0:01:30 1563
  2857  2.7875e-03  8.5089e-04  3.1239e-04  2.7138e-03  5.8458e-04  2.6153e-04  0:01:12 1562
  2858  2.7601e-03  8.8218e-04  3.1159e-04  2.6860e-03  5.8353e-04  2.6055e-04  0:00:58 1561

  iter  continuity  x-velocity  y-velocity      energy           k       omega     time/iter
  2859  2.7265e-03  8.8597e-04  3.1144e-04  2.6528e-03  5.8241e-04  2.5948e-04  0:00:46 1560
  2860  2.6948e-03  8.6752e-04  3.1206e-04  2.6209e-03  5.8111e-04  2.5853e-04  0:05:49 1559
  2861  2.6637e-03  8.6490e-04  3.1302e-04  2.5896e-03  5.7979e-04  2.5763e-04  0:04:39 1558
  2862  2.6322e-03  8.6247e-04  3.1166e-04  2.5581e-03  5.7820e-04  2.5661e-04  0:03:43 1557
  2863  2.6024e-03  8.6664e-04  3.0879e-04  2.5284e-03  5.7645e-04  2.5571e-04  0:02:58 1556
  2864  2.5723e-03  8.7785e-04  3.0761e-04  2.4986e-03  5.7457e-04  2.5475e-04  0:02:22 1555
  2865  2.5432e-03  8.7099e-04  3.0679e-04  2.4696e-03  5.7253e-04  2.5374e-04  0:01:54 1554
  2866  2.5143e-03  8.6505e-04  3.0830e-04  2.4406e-03  5.7032e-04  2.5269e-04  0:01:31 1553
  2867  2.4905e-03  8.6891e-04  3.0583e-04  2.4163e-03  5.6795e-04  2.5156e-04  0:01:13 1552
  2868  2.4664e-03  8.9118e-04  3.0298e-04  2.3916e-03  5.6545e-04  2.5040e-04  0:00:58 1551
  2869  2.4482e-03  9.3026e-04  3.0378e-04  2.3723e-03  5.6277e-04  2.4929e-04  0:00:47 1550

  iter  continuity  x-velocity  y-velocity      energy           k       omega     time/iter
  2870  2.4189e-03  9.3327e-04  3.0764e-04  2.3432e-03  5.5993e-04  2.4819e-04  0:05:47 1549
  2871  2.3874e-03  8.6135e-04  3.0426e-04  2.3126e-03  5.5690e-04  2.4723e-04  0:04:37 1548
  2872  2.3627e-03  8.4448e-04  3.0320e-04  2.2887e-03  5.5367e-04  2.4616e-04  0:03:42 1547
  2873  2.3407e-03  8.4300e-04  3.0207e-04  2.2674e-03  5.5026e-04  2.4465e-04  0:02:57 1546
  2874  2.3215e-03  8.4126e-04  2.9920e-04  2.2485e-03  5.4675e-04  2.4286e-04  0:02:22 1545
  2875  2.3035e-03  8.2484e-04  2.9653e-04  2.2302e-03  5.4314e-04  2.4156e-04  0:01:53 1544
  2876  2.2874e-03  8.2035e-04  2.8772e-04  2.2138e-03  5.3931e-04  2.4035e-04  0:01:31 1543
  2877  2.2739e-03  8.2313e-04  2.8369e-04  2.2000e-03  5.3531e-04  2.3904e-04  0:01:12 1542
  2878  2.2607e-03  8.2279e-04  2.8394e-04  2.1865e-03  5.3141e-04  2.3781e-04  0:00:58 1541
  2879  2.2454e-03  8.0783e-04  2.8678e-04  2.1717e-03  5.2754e-04  2.3657e-04  0:00:46 1540
  2880  2.2350e-03  8.2114e-04  2.9154e-04  2.1618e-03  5.2368e-04  2.3534e-04  0:05:45 1539

  iter  continuity  x-velocity  y-velocity      energy           k       omega     time/iter
  2881  2.2250e-03  8.2781e-04  2.9616e-04  2.1518e-03  5.1988e-04  2.3415e-04  0:04:36 1538
  2882  2.2182e-03  8.3645e-04  2.9370e-04  2.1452e-03  5.1619e-04  2.3293e-04  0:03:40 1537
  2883  2.2144e-03  8.5742e-04  2.8944e-04  2.1413e-03  5.1269e-04  2.3176e-04  0:02:56 1536
  2884  2.2089e-03  8.7443e-04  2.8666e-04  2.1357e-03  5.0938e-04  2.3060e-04  0:02:21 1535
  2885  2.2028e-03  8.6899e-04  2.8878e-04  2.1299e-03  5.0633e-04  2.2948e-04  0:01:53 1534
  2886  2.1969e-03  8.5719e-04  2.9200e-04  2.1241e-03  5.0354e-04  2.2864e-04  0:01:30 1533
  2887  2.1927e-03  8.6135e-04  2.9277e-04  2.1203e-03  5.0095e-04  2.2784e-04  0:01:12 1532
  2888  2.1923e-03  8.8469e-04  2.9314e-04  2.1204e-03  4.9857e-04  2.2710e-04  0:00:58 1531
  2889  2.1852e-03  8.7723e-04  2.9336e-04  2.1141e-03  4.9644e-04  2.2623e-04  0:00:46 1530
  2890  2.1800e-03  8.5998e-04  2.9509e-04  2.1094e-03  4.9448e-04  2.2541e-04  0:00:37 1529
  2891  2.1792e-03  8.6598e-04  2.9284e-04  2.1089e-03  4.9275e-04  2.2447e-04  0:05:35 1528

  iter  continuity  x-velocity  y-velocity      energy           k       omega     time/iter
  2892  2.1827e-03  9.0649e-04  2.9180e-04  2.1121e-03  4.9119e-04  2.2356e-04  0:04:28 1527
  2893  2.1768e-03  8.9184e-04  2.9462e-04  2.1062e-03  4.8982e-04  2.2261e-04  0:03:34 1526
  2894  2.1815e-03  9.0538e-04  3.0163e-04  2.1100e-03  4.8858e-04  2.2200e-04  0:02:51 1525
  2895  2.1854e-03  9.4346e-04  3.0837e-04  2.1129e-03  4.8737e-04  2.2141e-04  0:02:17 1524
  2896  2.1702e-03  8.8968e-04  3.0948e-04  2.0993e-03  4.8636e-04  2.2020e-04  0:01:49 1523
  2897  2.1633e-03  8.6668e-04  3.0216e-04  2.0937e-03  4.8542e-04  2.1902e-04  0:01:27 1522
  2898  2.1566e-03  8.5695e-04  2.9452e-04  2.0876e-03  4.8447e-04  2.1854e-04  0:01:10 1521
  2899  2.1515e-03  8.6270e-04  2.8739e-04  2.0827e-03  4.8352e-04  2.1786e-04  0:00:56 1520
  2900  2.1466e-03  8.5481e-04  2.8565e-04  2.0774e-03  4.8269e-04  2.1727e-04  0:00:45 1519
  2901  2.1403e-03  8.5070e-04  2.8889e-04  2.0710e-03  4.8190e-04  2.1662e-04  0:05:39 1518
  2902  2.1324e-03  8.3913e-04  2.9182e-04  2.0638e-03  4.8117e-04  2.1602e-04  0:04:31 1517

  iter  continuity  x-velocity  y-velocity      energy           k       omega     time/iter
  2903  2.1283e-03  8.4825e-04  2.9409e-04  2.0597e-03  4.8053e-04  2.1557e-04  0:03:37 1516
  2904  2.1230e-03  8.4981e-04  2.9417e-04  2.0542e-03  4.7990e-04  2.1520e-04  0:02:53 1515
  2905  2.1186e-03  8.6983e-04  2.8721e-04  2.0497e-03  4.7932e-04  2.1493e-04  0:02:19 1514
  2906  2.1176e-03  9.0074e-04  2.8488e-04  2.0481e-03  4.7882e-04  2.1473e-04  0:01:51 1513
  2907  2.1112e-03  9.0352e-04  2.8693e-04  2.0418e-03  4.7845e-04  2.1444e-04  0:01:29 1512
  2908  2.1068e-03  8.9704e-04  2.9249e-04  2.0374e-03  4.7826e-04  2.1433e-04  0:01:11 1511
  2909  2.1023e-03  8.8761e-04  2.9476e-04  2.0326e-03  4.7822e-04  2.1434e-04  0:00:57 1510
  2910  2.1003e-03  9.0305e-04  2.9365e-04  2.0304e-03  4.7831e-04  2.1435e-04  0:00:45 1509
  2911  2.0972e-03  9.3945e-04  2.9360e-04  2.0280e-03  4.7857e-04  2.1439e-04  0:00:36 1508
  2912  2.0891e-03  9.1945e-04  2.9418e-04  2.0204e-03  4.7901e-04  2.1442e-04  0:05:30 1507
  2913  2.0839e-03  9.0481e-04  2.9364e-04  2.0156e-03  4.7968e-04  2.1430e-04  0:04:24 1506

  iter  continuity  x-velocity  y-velocity      energy           k       omega     time/iter
  2914  2.0817e-03  9.2237e-04  2.9480e-04  2.0134e-03  4.8048e-04  2.1431e-04  0:03:31 1505
  2915  2.0764e-03  9.2562e-04  2.9248e-04  2.0081e-03  4.8135e-04  2.1399e-04  0:02:49 1504
  2916  2.0766e-03  9.0324e-04  2.9509e-04  2.0082e-03  4.8228e-04  2.1381e-04  0:02:15 1503
  2917  2.0813e-03  9.3488e-04  3.0046e-04  2.0123e-03  4.8326e-04  2.1368e-04  0:01:48 1502
  2918  2.0870e-03  9.5105e-04  3.0136e-04  2.0173e-03  4.8438e-04  2.1349e-04  0:01:26 1501
  2919  2.0780e-03  9.2816e-04  2.9817e-04  2.0091e-03  4.8553e-04  2.1321e-04  0:01:09 1500
  2920  2.0710e-03  8.7203e-04  2.9181e-04  2.0034e-03  4.8666e-04  2.1292e-04  0:05:55 1499
  2921  2.0708e-03  8.6596e-04  2.8463e-04  2.0042e-03  4.8772e-04  2.1258e-04  0:04:44 1498
  2922  2.0734e-03  8.6370e-04  2.8334e-04  2.0068e-03  4.8883e-04  2.1258e-04  0:03:47 1497
  2923  2.0739e-03  8.5605e-04  2.8265e-04  2.0077e-03  4.8996e-04  2.1270e-04  0:03:01 1496
  2924  2.0772e-03  8.5129e-04  2.8152e-04  2.0117e-03  4.9116e-04  2.1281e-04  0:02:25 1495

  iter  continuity  x-velocity  y-velocity      energy           k       omega     time/iter
  2925  2.0803e-03  8.3709e-04  2.8007e-04  2.0149e-03  4.9238e-04  2.1290e-04  0:01:56 1494
  2926  2.0851e-03  8.3446e-04  2.7625e-04  2.0201e-03  4.9365e-04  2.1280e-04  0:01:33 1493
  2927  2.0959e-03  8.5930e-04  2.7412e-04  2.0309e-03  4.9495e-04  2.1240e-04  0:01:14 1492
  2928  2.1079e-03  8.7474e-04  2.7783e-04  2.0427e-03  4.9627e-04  2.1191e-04  0:00:59 1491
  2929  2.1192e-03  8.8240e-04  2.8151e-04  2.0549e-03  4.9758e-04  2.1208e-04  0:05:45 1490
  2930  2.1310e-03  8.8015e-04  2.8520e-04  2.0665e-03  4.9889e-04  2.1212e-04  0:04:36 1489
  2931  2.1426e-03  8.7254e-04  2.8015e-04  2.0784e-03  5.0024e-04  2.1202e-04  0:03:41 1488
  2932  2.1580e-03  8.9326e-04  2.7937e-04  2.0942e-03  5.0166e-04  2.1196e-04  0:02:56 1487
  2933  2.1691e-03  8.8916e-04  2.7788e-04  2.1063e-03  5.0317e-04  2.1191e-04  0:02:21 1486
  2934  2.1826e-03  8.6849e-04  2.7769e-04  2.1203e-03  5.0470e-04  2.1169e-04  0:01:53 1485
  2935  2.1962e-03  8.5879e-04  2.8079e-04  2.1341e-03  5.0626e-04  2.1163e-04  0:01:30 1484

  iter  continuity  x-velocity  y-velocity      energy           k       omega     time/iter
  2936  2.2126e-03  8.8637e-04  2.7999e-04  2.1512e-03  5.0786e-04  2.1148e-04  0:01:12 1483
  2937  2.2277e-03  9.0490e-04  2.7979e-04  2.1668e-03  5.0949e-04  2.1117e-04  0:00:58 1482
  2938  2.2457e-03  9.0469e-04  2.7997e-04  2.1850e-03  5.1113e-04  2.1083e-04  0:00:46 1481
  2939  2.2614e-03  9.0939e-04  2.8516e-04  2.2011e-03  5.1276e-04  2.1046e-04  0:05:33 1480
  2940  2.2787e-03  9.1592e-04  2.8574e-04  2.2185e-03  5.1441e-04  2.1010e-04  0:04:26 1479
  2941  2.2996e-03  9.4773e-04  2.8149e-04  2.2384e-03  5.1600e-04  2.0941e-04  0:03:33 1478
  2942  2.3084e-03  9.3313e-04  2.8267e-04  2.2477e-03  5.1762e-04  2.0900e-04  0:02:50 1477
  2943  2.3113e-03  8.5715e-04  2.7335e-04  2.2523e-03  5.1918e-04  2.0889e-04  0:02:16 1476
  2944  2.3220e-03  8.4041e-04  2.7122e-04  2.2640e-03  5.2061e-04  2.0865e-04  0:01:49 1475
  2945  2.3319e-03  8.3566e-04  2.6752e-04  2.2749e-03  5.2194e-04  2.0833e-04  0:01:27 1474
  2946  2.3427e-03  8.3776e-04  2.6396e-04  2.2867e-03  5.2321e-04  2.0801e-04  0:01:09 1473

  iter  continuity  x-velocity  y-velocity      energy           k       omega     time/iter
  2947  2.3509e-03  8.2349e-04  2.6182e-04  2.2956e-03  5.2441e-04  2.0776e-04  0:00:56 1472
  2948  2.3596e-03  8.1263e-04  2.5757e-04  2.3047e-03  5.2551e-04  2.0745e-04  0:00:44 1471
  2949  2.3699e-03  8.1043e-04  2.5293e-04  2.3152e-03  5.2652e-04  2.0710e-04  0:05:29 1470
  2950  2.3812e-03  8.1682e-04  2.5511e-04  2.3265e-03  5.2752e-04  2.0674e-04  0:04:23 1469
  2951  2.3888e-03  8.2023e-04  2.5782e-04  2.3345e-03  5.2846e-04  2.0631e-04  0:03:31 1468
  2952  2.3996e-03  8.3259e-04  2.6008e-04  2.3459e-03  5.2934e-04  2.0615e-04  0:02:48 1467
  2953  2.4093e-03  8.4252e-04  2.5979e-04  2.3560e-03  5.3017e-04  2.0600e-04  0:02:15 1466
  2954  2.4187e-03  8.5094e-04  2.5869e-04  2.3658e-03  5.3091e-04  2.0571e-04  0:01:48 1465
  2955  2.4288e-03  8.6149e-04  2.5691e-04  2.3760e-03  5.3156e-04  2.0531e-04  0:01:26 1464
  2956  2.4355e-03  8.6842e-04  2.5748e-04  2.3831e-03  5.3213e-04  2.0471e-04  0:01:09 1463
  2957  2.4422e-03  8.5779e-04  2.5879e-04  2.3901e-03  5.3266e-04  2.0422e-04  0:00:55 1462

  iter  continuity  x-velocity  y-velocity      energy           k       omega     time/iter
  2958  2.4482e-03  8.4701e-04  2.6069e-04  2.3964e-03  5.3314e-04  2.0379e-04  0:00:44 1461
  2959  2.4575e-03  8.7422e-04  2.6043e-04  2.4060e-03  5.3357e-04  2.0321e-04  0:05:27 1460
  2960  2.4665e-03  9.0679e-04  2.6104e-04  2.4151e-03  5.3395e-04  2.0245e-04  0:04:22 1459
  2961  2.4649e-03  8.9794e-04  2.5864e-04  2.4145e-03  5.3431e-04  2.0180e-04  0:03:29 1458
  2962  2.4639e-03  8.4923e-04  2.6110e-04  2.4142e-03  5.3461e-04  2.0124e-04  0:02:47 1457
  2963  2.4680e-03  8.6022e-04  2.5740e-04  2.4186e-03  5.3485e-04  2.0077e-04  0:02:14 1456
  2964  2.4682e-03  8.4823e-04  2.5693e-04  2.4189e-03  5.3503e-04  2.0013e-04  0:01:47 1455
  2965  2.4733e-03  8.5696e-04  2.6040e-04  2.4232e-03  5.3521e-04  1.9946e-04  0:01:25 1454
  2966  2.4759e-03  8.8397e-04  2.6198e-04  2.4256e-03  5.3532e-04  1.9864e-04  0:01:08 1453
  2967  2.4637e-03  8.1408e-04  2.6109e-04  2.4147e-03  5.3543e-04  1.9763e-04  0:00:55 1452
  2968  2.4579e-03  7.7825e-04  2.5795e-04  2.4101e-03  5.3550e-04  1.9676e-04  0:00:44 1451

  iter  continuity  x-velocity  y-velocity      energy           k       omega     time/iter
  2969  2.4524e-03  7.6779e-04  2.5282e-04  2.4058e-03  5.3547e-04  1.9627e-04  0:00:35 1450
  2970  2.4477e-03  7.6489e-04  2.4589e-04  2.4020e-03  5.3537e-04  1.9575e-04  0:05:18 1449
  2971  2.4426e-03  7.6794e-04  2.3994e-04  2.3972e-03  5.3521e-04  1.9525e-04  0:04:14 1448
  2972  2.4357e-03  7.5530e-04  2.3699e-04  2.3904e-03  5.3513e-04  1.9504e-04  0:03:23 1447
  2973  2.4286e-03  7.3538e-04  2.3453e-04  2.3833e-03  5.3504e-04  1.9481e-04  0:02:42 1446
  2974  2.4232e-03  7.2543e-04  2.3730e-04  2.3778e-03  5.3491e-04  1.9455e-04  0:02:10 1445
  2975  2.4187e-03  7.3887e-04  2.3882e-04  2.3732e-03  5.3474e-04  1.9429e-04  0:01:44 1444
  2976  2.4109e-03  7.2919e-04  2.3819e-04  2.3661e-03  5.3452e-04  1.9397e-04  0:01:23 1443
  2977  2.4043e-03  7.2578e-04  2.3757e-04  2.3597e-03  5.3426e-04  1.9358e-04  0:01:06 1442
  2978  2.3963e-03  7.1060e-04  2.4019e-04  2.3519e-03  5.3393e-04  1.9314e-04  0:00:53 1441
  2979  2.3896e-03  7.0855e-04  2.3847e-04  2.3453e-03  5.3351e-04  1.9241e-04  0:00:42 1440

  iter  continuity  x-velocity  y-velocity      energy           k       omega     time/iter
  2980  2.3851e-03  7.1759e-04  2.3880e-04  2.3407e-03  5.3307e-04  1.9159e-04  0:05:22 1439
  2981  2.3824e-03  7.5347e-04  2.3797e-04  2.3379e-03  5.3257e-04  1.9087e-04  0:04:17 1438
  2982  2.3742e-03  7.5868e-04  2.3886e-04  2.3303e-03  5.3209e-04  1.9026e-04  0:03:26 1437
  2983  2.3646e-03  7.4492e-04  2.3969e-04  2.3209e-03  5.3158e-04  1.8962e-04  0:02:44 1436
  2984  2.3554e-03  7.3466e-04  2.4019e-04  2.3120e-03  5.3102e-04  1.8906e-04  0:02:11 1435
  2985  2.3471e-03  7.4056e-04  2.4164e-04  2.3042e-03  5.3043e-04  1.8845e-04  0:01:45 1434
  2986  2.3396e-03  7.6145e-04  2.4105e-04  2.2971e-03  5.2980e-04  1.8773e-04  0:01:24 1433
  2987  2.3259e-03  7.5159e-04  2.4140e-04  2.2837e-03  5.2918e-04  1.8700e-04  0:01:07 1432
  2988  2.3148e-03  7.4356e-04  2.4158e-04  2.2728e-03  5.2857e-04  1.8636e-04  0:00:54 1431
  2989  2.3057e-03  7.6033e-04  2.4165e-04  2.2637e-03  5.2795e-04  1.8575e-04  0:00:43 1430
  2990  2.2939e-03  7.6962e-04  2.4346e-04  2.2517e-03  5.2726e-04  1.8509e-04  0:05:20 1429

  iter  continuity  x-velocity  y-velocity      energy           k       omega     time/iter
  2991  2.2779e-03  7.4133e-04  2.4126e-04  2.2357e-03  5.2660e-04  1.8448e-04  0:04:16 1428
  2992  2.2719e-03  8.0207e-04  2.4306e-04  2.2288e-03  5.2581e-04  1.8387e-04  0:03:25 1427
  2993  2.2556e-03  8.1223e-04  2.4875e-04  2.2129e-03  5.2495e-04  1.8330e-04  0:02:44 1426
  2994  2.2295e-03  7.2980e-04  2.4924e-04  2.1881e-03  5.2399e-04  1.8267e-04  0:02:11 1425
  2995  2.2094e-03  7.0241e-04  2.4460e-04  2.1691e-03  5.2298e-04  1.8204e-04  0:01:45 1424
  2996  2.1891e-03  6.9784e-04  2.3887e-04  2.1497e-03  5.2192e-04  1.8138e-04  0:01:24 1423
  2997  2.1702e-03  6.9318e-04  2.2993e-04  2.1311e-03  5.2081e-04  1.8061e-04  0:01:07 1422
  2998  2.1519e-03  6.9893e-04  2.2365e-04  2.1130e-03  5.1962e-04  1.8006e-04  0:00:53 1421
  2999  2.1334e-03  7.0311e-04  2.2078e-04  2.0941e-03  5.1845e-04  1.7954e-04  0:00:43 1420
  3000  2.1145e-03  7.0514e-04  2.2044e-04  2.0749e-03  5.1732e-04  1.7893e-04  0:05:18 1419
  3001  2.0955e-03  6.9735e-04  2.2021e-04  2.0553e-03  5.1625e-04  1.7825e-04  0:04:14 1418

  iter  continuity  x-velocity  y-velocity      energy           k       omega     time/iter
  3002  2.0792e-03  7.2239e-04  2.2236e-04  2.0385e-03  5.1516e-04  1.7745e-04  0:03:23 1417
  3003  2.0577e-03  7.1872e-04  2.2308e-04  2.0174e-03  5.1407e-04  1.7636e-04  0:02:42 1416
  3004  2.0302e-03  6.8496e-04  2.2060e-04  1.9906e-03  5.1296e-04  1.7519e-04  0:02:10 1415
  3005  2.0049e-03  6.4119e-04  2.1898e-04  1.9660e-03  5.1177e-04  1.7414e-04  0:01:44 1414
  3006  1.9811e-03  6.2567e-04  2.1337e-04  1.9424e-03  5.1057e-04  1.7330e-04  0:01:23 1413
  3007  1.9593e-03  6.2255e-04  2.0876e-04  1.9205e-03  5.0935e-04  1.7221e-04  0:01:06 1412
  3008  1.9392e-03  6.3147e-04  2.0844e-04  1.9002e-03  5.0811e-04  1.7120e-04  0:00:53 1411
  3009  1.9175e-03  6.3617e-04  2.0984e-04  1.8783e-03  5.0682e-04  1.7025e-04  0:05:24 1410
  3010  1.8950e-03  6.3485e-04  2.1173e-04  1.8562e-03  5.0551e-04  1.6935e-04  0:04:19 1409
  3011  1.8707e-03  6.1940e-04  2.1361e-04  1.8319e-03  5.0418e-04  1.6845e-04  0:03:27 1408
  3012  1.8471e-03  6.1715e-04  2.1264e-04  1.8086e-03  5.0284e-04  1.6754e-04  0:02:46 1407

  iter  continuity  x-velocity  y-velocity      energy           k       omega     time/iter
  3013  1.8246e-03  6.2469e-04  2.1321e-04  1.7863e-03  5.0153e-04  1.6667e-04  0:02:12 1406
  3014  1.8071e-03  6.6600e-04  2.1114e-04  1.7690e-03  5.0028e-04  1.6580e-04  0:01:46 1405
  3015  1.7872e-03  7.0091e-04  2.1011e-04  1.7493e-03  4.9906e-04  1.6495e-04  0:01:25 1404
  3016  1.7652e-03  6.9250e-04  2.1088e-04  1.7271e-03  4.9790e-04  1.6421e-04  0:01:08 1403
  3017  1.7455e-03  6.9208e-04  2.1306e-04  1.7071e-03  4.9678e-04  1.6346e-04  0:00:54 1402
  3018  1.7285e-03  7.0769e-04  2.1385e-04  1.6899e-03  4.9574e-04  1.6256e-04  0:05:23 1401
  3019  1.7124e-03  7.0931e-04  2.1423e-04  1.6731e-03  4.9471e-04  1.6172e-04  0:04:19 1400
  3020  1.6920e-03  6.9123e-04  2.1248e-04  1.6524e-03  4.9371e-04  1.6094e-04  0:03:27 1399
  3021  1.6827e-03  7.0652e-04  2.1660e-04  1.6422e-03  4.9269e-04  1.6019e-04  0:02:45 1398
  3022  1.6721e-03  7.4720e-04  2.2218e-04  1.6310e-03  4.9166e-04  1.5942e-04  0:02:12 1397
  3023  1.6479e-03  7.0260e-04  2.2138e-04  1.6075e-03  4.9058e-04  1.5863e-04  0:01:46 1396

  iter  continuity  x-velocity  y-velocity      energy           k       omega     time/iter
  3024  1.6272e-03  6.4244e-04  2.1802e-04  1.5879e-03  4.8946e-04  1.5786e-04  0:01:24 1395
  3025  1.6113e-03  6.1398e-04  2.1645e-04  1.5729e-03  4.8830e-04  1.5713e-04  0:01:07 1394
  3026  1.5986e-03  6.0112e-04  2.1543e-04  1.5605e-03  4.8714e-04  1.5637e-04  0:00:54 1393
  3027  1.5881e-03  6.0604e-04  2.1147e-04  1.5500e-03  4.8597e-04  1.5566e-04  0:00:43 1392
  3028  1.5772e-03  5.9418e-04  2.0882e-04  1.5390e-03  4.8479e-04  1.5500e-04  0:00:34 1391
  3029  1.5680e-03  5.8283e-04  2.0807e-04  1.5297e-03  4.8360e-04  1.5432e-04  0:05:06 1390
  3030  1.5603e-03  5.7642e-04  2.0857e-04  1.5216e-03  4.8239e-04  1.5366e-04  0:04:04 1389
  3031  1.5529e-03  5.7129e-04  2.0735e-04  1.5139e-03  4.8115e-04  1.5304e-04  0:03:15 1388
  3032  1.5438e-03  5.6805e-04  2.0684e-04  1.5049e-03  4.7989e-04  1.5241e-04  0:02:36 1387
  3033  1.5374e-03  5.7494e-04  2.0515e-04  1.4988e-03  4.7860e-04  1.5182e-04  0:02:05 1386
  3034  1.5329e-03  5.9401e-04  2.0457e-04  1.4944e-03  4.7728e-04  1.5130e-04  0:01:40 1385

  iter  continuity  x-velocity  y-velocity      energy           k       omega     time/iter
  3035  1.5257e-03  5.9116e-04  2.0496e-04  1.4872e-03  4.7594e-04  1.5068e-04  0:01:20 1384
  3036  1.5206e-03  5.8960e-04  2.0182e-04  1.4819e-03  4.7460e-04  1.5014e-04  0:01:04 1383
  3037  1.5163e-03  5.7887e-04  2.0004e-04  1.4772e-03  4.7329e-04  1.4977e-04  0:00:51 1382
  3038  1.5141e-03  5.8671e-04  2.0263e-04  1.4746e-03  4.7199e-04  1.4943e-04  0:00:41 1381
  3039  1.5111e-03  5.9134e-04  2.0360e-04  1.4715e-03  4.7069e-04  1.4914e-04  0:05:09 1380
  3040  1.5102e-03  5.9449e-04  2.0359e-04  1.4710e-03  4.6933e-04  1.4885e-04  0:04:07 1379
  3041  1.5123e-03  6.2048e-04  2.0398e-04  1.4734e-03  4.6795e-04  1.4858e-04  0:03:17 1378
  3042  1.5115e-03  6.1538e-04  2.0299e-04  1.4727e-03  4.6656e-04  1.4835e-04  0:02:38 1377
  3043  1.5095e-03  5.9471e-04  2.0271e-04  1.4708e-03  4.6517e-04  1.4809e-04  0:02:06 1376
  3044  1.5123e-03  6.0249e-04  2.0222e-04  1.4737e-03  4.6375e-04  1.4779e-04  0:01:41 1375
  3045  1.5207e-03  6.3364e-04  2.0287e-04  1.4818e-03  4.6236e-04  1.4738e-04  0:01:21 1374

  iter  continuity  x-velocity  y-velocity      energy           k       omega     time/iter
  3046  1.5255e-03  6.5890e-04  2.0215e-04  1.4866e-03  4.6106e-04  1.4686e-04  0:05:39 1373
  3047  1.5325e-03  6.6951e-04  2.0204e-04  1.4936e-03  4.5985e-04  1.4631e-04  0:04:31 1372
  3048  1.5378e-03  6.6795e-04  2.0602e-04  1.4993e-03  4.5869e-04  1.4575e-04  0:03:37 1371
  3049  1.5369e-03  6.4125e-04  2.0654e-04  1.4991e-03  4.5761e-04  1.4526e-04  0:02:53 1370
  3050  1.5434e-03  6.2661e-04  2.0555e-04  1.5062e-03  4.5659e-04  1.4474e-04  0:02:18 1369
  3051  1.5527e-03  6.4131e-04  2.0324e-04  1.5160e-03  4.5567e-04  1.4416e-04  0:01:51 1368
  3052  1.5607e-03  6.3281e-04  2.0218e-04  1.5243e-03  4.5484e-04  1.4367e-04  0:01:28 1367
  3053  1.5712e-03  6.1800e-04  2.0562e-04  1.5349e-03  4.5408e-04  1.4338e-04  0:01:11 1366
  3054  1.5916e-03  6.3760e-04  2.0940e-04  1.5542e-03  4.5344e-04  1.4315e-04  0:00:57 1365
  3055  1.6054e-03  6.6843e-04  2.0963e-04  1.5679e-03  4.5302e-04  1.4300e-04  0:00:45 1364
  3056  1.6102e-03  6.2707e-04  2.0883e-04  1.5738e-03  4.5300e-04  1.4290e-04  0:05:09 1363

  iter  continuity  x-velocity  y-velocity      energy           k       omega     time/iter
  3057  1.6190e-03  5.6980e-04  2.0649e-04  1.5837e-03  4.5321e-04  1.4284e-04  0:04:07 1362
  3058  1.6319e-03  5.4614e-04  2.0281e-04  1.5974e-03  4.5365e-04  1.4287e-04  0:03:17 1361
  3059  1.6466e-03  5.3204e-04  2.0251e-04  1.6125e-03  4.5427e-04  1.4293e-04  0:02:38 1360
  3060  1.6642e-03  5.3217e-04  2.0343e-04  1.6302e-03  4.5509e-04  1.4300e-04  0:02:06 1359
  3061  1.6825e-03  5.3261e-04  2.0678e-04  1.6486e-03  4.5605e-04  1.4318e-04  0:01:41 1358
  3062  1.7017e-03  5.2757e-04  2.0956e-04  1.6677e-03  4.5710e-04  1.4342e-04  0:01:21 1357
  3063  1.7202e-03  5.1646e-04  2.1149e-04  1.6862e-03  4.5817e-04  1.4361e-04  0:01:04 1356
  3064  1.7379e-03  5.0592e-04  2.1179e-04  1.7040e-03  4.5924e-04  1.4373e-04  0:00:51 1355
  3065  1.7572e-03  5.1367e-04  2.0847e-04  1.7235e-03  4.6034e-04  1.4366e-04  0:00:41 1354
  3066  1.7765e-03  5.2766e-04  2.0687e-04  1.7428e-03  4.6147e-04  1.4365e-04  0:00:33 1353
  3067  1.7950e-03  5.3888e-04  2.0488e-04  1.7613e-03  4.6256e-04  1.4359e-04  0:04:57 1352

  iter  continuity  x-velocity  y-velocity      energy           k       omega     time/iter
  3068  1.8123e-03  5.3769e-04  2.0230e-04  1.7784e-03  4.6358e-04  1.4341e-04  0:03:57 1351
  3069  1.8290e-03  5.4068e-04  2.0054e-04  1.7950e-03  4.6453e-04  1.4332e-04  0:03:10 1350
  3070  1.8457e-03  5.4808e-04  2.0247e-04  1.8116e-03  4.6545e-04  1.4323e-04  0:02:32 1349
  3071  1.8623e-03  5.6432e-04  2.0350e-04  1.8281e-03  4.6632e-04  1.4311e-04  0:02:01 1348
  3072  1.8761e-03  5.7444e-04  2.0308e-04  1.8420e-03  4.6714e-04  1.4297e-04  0:01:37 1347
  3073  1.8893e-03  5.8765e-04  2.0255e-04  1.8556e-03  4.6793e-04  1.4282e-04  0:01:17 1346
  3074  1.9023e-03  5.9859e-04  2.0226e-04  1.8688e-03  4.6872e-04  1.4273e-04  0:01:02 1345
  3075  1.9132e-03  5.9315e-04  2.0266e-04  1.8797e-03  4.6949e-04  1.4264e-04  0:00:49 1344
  3076  1.9223e-03  5.7486e-04  2.0136e-04  1.8887e-03  4.7021e-04  1.4253e-04  0:00:40 1343
  3077  1.9314e-03  5.7117e-04  2.0200e-04  1.8979e-03  4.7088e-04  1.4249e-04  0:05:00 1342
  3078  1.9416e-03  5.8211e-04  2.0300e-04  1.9082e-03  4.7151e-04  1.4254e-04  0:04:00 1341

  iter  continuity  x-velocity  y-velocity      energy           k       omega     time/iter
  3079  1.9491e-03  5.8744e-04  2.0294e-04  1.9160e-03  4.7211e-04  1.4262e-04  0:03:12 1340
  3080  1.9560e-03  5.8306e-04  2.0336e-04  1.9234e-03  4.7263e-04  1.4269e-04  0:02:33 1339
  3081  1.9631e-03  5.8214e-04  2.0498e-04  1.9306e-03  4.7308e-04  1.4273e-04  0:02:03 1338
  3082  1.9691e-03  5.8212e-04  2.0748e-04  1.9368e-03  4.7341e-04  1.4280e-04  0:01:38 1337
  3083  1.9759e-03  5.8677e-04  2.0903e-04  1.9437e-03  4.7369e-04  1.4286e-04  0:01:18 1336
  3084  1.9825e-03  6.0585e-04  2.0971e-04  1.9505e-03  4.7389e-04  1.4273e-04  0:01:03 1335
  3085  1.9866e-03  6.1282e-04  2.1107e-04  1.9549e-03  4.7402e-04  1.4292e-04  0:00:50 1334
  3086  1.9885e-03  6.0697e-04  2.1052e-04  1.9571e-03  4.7408e-04  1.4311e-04  0:00:40 1333
  3087  1.9920e-03  6.0606e-04  2.1252e-04  1.9607e-03  4.7405e-04  1.4332e-04  0:04:58 1332
  3088  1.9963e-03  6.0899e-04  2.1556e-04  1.9649e-03  4.7397e-04  1.4359e-04  0:03:59 1331
  3089  2.0026e-03  6.3266e-04  2.1717e-04  1.9707e-03  4.7387e-04  1.4376e-04  0:03:11 1330

  iter  continuity  x-velocity  y-velocity      energy           k       omega     time/iter
  3090  2.0079e-03  6.6999e-04  2.1562e-04  1.9754e-03  4.7369e-04  1.4378e-04  0:02:32 1329
  3091  2.0100e-03  7.0313e-04  2.1407e-04  1.9777e-03  4.7348e-04  1.4375e-04  0:02:02 1328
  3092  2.0015e-03  6.6514e-04  2.1117e-04  1.9702e-03  4.7321e-04  1.4372e-04  0:01:37 1327
  3093  1.9973e-03  6.4183e-04  2.0715e-04  1.9668e-03  4.7280e-04  1.4351e-04  0:01:18 1326
  3094  1.9940e-03  6.3489e-04  2.0420e-04  1.9638e-03  4.7227e-04  1.4329e-04  0:01:02 1325
  3095  1.9890e-03  6.0996e-04  2.0234e-04  1.9590e-03  4.7165e-04  1.4306e-04  0:00:50 1324
  3096  1.9849e-03  6.0150e-04  2.0193e-04  1.9547e-03  4.7097e-04  1.4275e-04  0:00:40 1323
  3097  1.9828e-03  6.1454e-04  2.0153e-04  1.9522e-03  4.7019e-04  1.4228e-04  0:04:56 1322
  3098  1.9793e-03  6.3773e-04  2.0292e-04  1.9484e-03  4.6931e-04  1.4176e-04  0:03:57 1321
  3099  1.9722e-03  6.3992e-04  2.0151e-04  1.9416e-03  4.6833e-04  1.4146e-04  0:03:09 1320
  3100  1.9638e-03  6.2130e-04  2.0024e-04  1.9334e-03  4.6722e-04  1.4113e-04  0:02:31 1319

[...]
  3905  1.3455e-03  2.9500e-04  1.2163e-04  1.2992e-03  2.2344e-04  9.1607e-05  0:00:20  514
  3906  1.3413e-03  2.9991e-04  1.2178e-04  1.2951e-03  2.2327e-04  9.1569e-05  0:01:58  513
  3907  1.3362e-03  2.9469e-04  1.2240e-04  1.2902e-03  2.2308e-04  9.1556e-05  0:01:35  512
  3908  1.3319e-03  2.8980e-04  1.2363e-04  1.2860e-03  2.2293e-04  9.1559e-05  0:01:16  511
  3909  1.3284e-03  2.9573e-04  1.2538e-04  1.2825e-03  2.2277e-04  9.1579e-05  0:01:00  510
  3910  1.3259e-03  3.1255e-04  1.2449e-04  1.2801e-03  2.2264e-04  9.1627e-05  0:00:48  509
  3911  1.3231e-03  3.1646e-04  1.2362e-04  1.2774e-03  2.2251e-04  9.1706e-05  0:00:38  508
  3912  1.3211e-03  3.2994e-04  1.2236e-04  1.2755e-03  2.2237e-04  9.1800e-05  0:00:31  507
  3913  1.3185e-03  3.2604e-04  1.2139e-04  1.2728e-03  2.2224e-04  9.1885e-05  0:00:24  506
  3914  1.3155e-03  3.1450e-04  1.2109e-04  1.2698e-03  2.2214e-04  9.1983e-05  0:00:20  505

  iter  continuity  x-velocity  y-velocity      energy           k       omega     time/iter
  3915  1.3130e-03  3.1309e-04  1.2046e-04  1.2673e-03  2.2200e-04  9.2068e-05  0:00:16  504
  3916  1.3103e-03  3.0482e-04  1.1960e-04  1.2646e-03  2.2186e-04  9.2129e-05  0:00:12  503
  3917  1.3080e-03  2.9140e-04  1.2011e-04  1.2623e-03  2.2178e-04  9.2210e-05  0:01:50  502
  3918  1.3063e-03  2.8495e-04  1.2063e-04  1.2606e-03  2.2174e-04  9.2296e-05  0:01:28  501
  3919  1.3049e-03  2.8552e-04  1.2162e-04  1.2593e-03  2.2176e-04  9.2373e-05  0:01:10  500
  3920  1.3037e-03  2.8835e-04  1.2244e-04  1.2581e-03  2.2185e-04  9.2486e-05  0:00:56  499
  3921  1.3028e-03  2.9227e-04  1.2403e-04  1.2572e-03  2.2199e-04  9.2613e-05  0:00:45  498
  3922  1.3024e-03  2.9739e-04  1.2573e-04  1.2568e-03  2.2215e-04  9.2725e-05  0:00:36  497
  3923  1.3024e-03  3.0243e-04  1.2805e-04  1.2569e-03  2.2233e-04  9.2810e-05  0:00:29  496
  3924  1.3029e-03  3.0807e-04  1.3060e-04  1.2574e-03  2.2248e-04  9.2856e-05  0:00:23  495
  3925  1.3033e-03  3.1145e-04  1.3229e-04  1.2579e-03  2.2267e-04  9.2878e-05  0:00:18  494

  iter  continuity  x-velocity  y-velocity      energy           k       omega     time/iter
  3926  1.3039e-03  3.1951e-04  1.3232e-04  1.2586e-03  2.2290e-04  9.2927e-05  0:01:53  493
  3927  1.3037e-03  3.2007e-04  1.3167e-04  1.2586e-03  2.2314e-04  9.2946e-05  0:01:30  492
  3928  1.3035e-03  3.1824e-04  1.3128e-04  1.2586e-03  2.2336e-04  9.2974e-05  0:01:12  491
  3929  1.3031e-03  3.1189e-04  1.3108e-04  1.2584e-03  2.2360e-04  9.2993e-05  0:00:58  490
  3930  1.3034e-03  3.1095e-04  1.3095e-04  1.2590e-03  2.2389e-04  9.3022e-05  0:00:46  489
  3931  1.3047e-03  3.2088e-04  1.3111e-04  1.2605e-03  2.2423e-04  9.3099e-05  0:00:37  488
  3932  1.3061e-03  3.2987e-04  1.3157e-04  1.2621e-03  2.2464e-04  9.3232e-05  0:00:29  487
  3933  1.3078e-03  3.3395e-04  1.3159e-04  1.2641e-03  2.2507e-04  9.3372e-05  0:00:23  486
  3934  1.3098e-03  3.3799e-04  1.3116e-04  1.2664e-03  2.2557e-04  9.3562e-05  0:00:19  485
  3935  1.3122e-03  3.3937e-04  1.3119e-04  1.2692e-03  2.2609e-04  9.3755e-05  0:00:15  484
  3936  1.3166e-03  3.5657e-04  1.3065e-04  1.2739e-03  2.2665e-04  9.3975e-05  0:01:49  483

  iter  continuity  x-velocity  y-velocity      energy           k       omega     time/iter
  3937  1.3206e-03  3.6009e-04  1.3079e-04  1.2781e-03  2.2724e-04  9.4202e-05  0:01:27  482
  3938  1.3243e-03  3.4374e-04  1.3081e-04  1.2820e-03  2.2784e-04  9.4431e-05  0:01:09  481
  3939  1.3281e-03  3.3274e-04  1.3031e-04  1.2862e-03  2.2848e-04  9.4648e-05  0:00:55  480
  3940  1.3334e-03  3.3311e-04  1.2990e-04  1.2918e-03  2.2911e-04  9.4839e-05  0:00:44  479
  3941  1.3394e-03  3.3668e-04  1.3018e-04  1.2981e-03  2.2978e-04  9.5028e-05  0:00:35  478
  3942  1.3453e-03  3.3184e-04  1.3115e-04  1.3043e-03  2.3049e-04  9.5201e-05  0:00:28  477
  3943  1.3518e-03  3.3542e-04  1.3239e-04  1.3111e-03  2.3128e-04  9.5369e-05  0:00:22  476
  3944  1.3581e-03  3.3380e-04  1.3326e-04  1.3178e-03  2.3209e-04  9.5547e-05  0:00:18  475
  3945  1.3648e-03  3.3190e-04  1.3450e-04  1.3247e-03  2.3287e-04  9.5702e-05  0:00:14  474
  3946  1.3716e-03  3.3531e-04  1.3433e-04  1.3319e-03  2.3364e-04  9.5839e-05  0:01:46  473
  3947  1.3785e-03  3.3916e-04  1.3376e-04  1.3391e-03  2.3440e-04  9.5938e-05  0:01:25  472

  iter  continuity  x-velocity  y-velocity      energy           k       omega     time/iter
  3948  1.3855e-03  3.4156e-04  1.3372e-04  1.3465e-03  2.3517e-04  9.6034e-05  0:01:08  471
  3949  1.3923e-03  3.3799e-04  1.3414e-04  1.3536e-03  2.3589e-04  9.6114e-05  0:00:54  470
  3950  1.3990e-03  3.3746e-04  1.3450e-04  1.3607e-03  2.3658e-04  9.6183e-05  0:00:43  469
  3951  1.4058e-03  3.3612e-04  1.3429e-04  1.3678e-03  2.3725e-04  9.6264e-05  0:00:34  468
  3952  1.4128e-03  3.3337e-04  1.3379e-04  1.3752e-03  2.3790e-04  9.6370e-05  0:00:27  467
  3953  1.4204e-03  3.3497e-04  1.3391e-04  1.3832e-03  2.3859e-04  9.6506e-05  0:00:22  466
  3954  1.4285e-03  3.3643e-04  1.3471e-04  1.3916e-03  2.3924e-04  9.6628e-05  0:00:17  465
  3955  1.4374e-03  3.4493e-04  1.3573e-04  1.4008e-03  2.3993e-04  9.6720e-05  0:00:14  464
  3956  1.4468e-03  3.5594e-04  1.3721e-04  1.4106e-03  2.4063e-04  9.6773e-05  0:00:11  463
  3957  1.4560e-03  3.5705e-04  1.3834e-04  1.4201e-03  2.4129e-04  9.6808e-05  0:01:41  462
  3958  1.4655e-03  3.5677e-04  1.3862e-04  1.4299e-03  2.4192e-04  9.6785e-05  0:01:21  461

  iter  continuity  x-velocity  y-velocity      energy           k       omega     time/iter
  3959  1.4745e-03  3.5197e-04  1.3733e-04  1.4393e-03  2.4250e-04  9.6726e-05  0:01:05  460
  3960  1.4840e-03  3.5178e-04  1.3587e-04  1.4492e-03  2.4304e-04  9.6691e-05  0:00:52  459
  3961  1.4943e-03  3.6238e-04  1.3445e-04  1.4599e-03  2.4357e-04  9.6633e-05  0:00:41  458
  3962  1.5047e-03  3.7337e-04  1.3335e-04  1.4707e-03  2.4407e-04  9.6583e-05  0:00:33  457
  3963  1.5151e-03  3.8057e-04  1.3299e-04  1.4814e-03  2.4453e-04  9.6549e-05  0:00:26  456
  3964  1.5250e-03  3.7928e-04  1.3330e-04  1.4916e-03  2.4497e-04  9.6505e-05  0:00:21  455
  3965  1.5348e-03  3.7578e-04  1.3425e-04  1.5017e-03  2.4542e-04  9.6453e-05  0:00:17  454
  3966  1.5456e-03  3.8265e-04  1.3553e-04  1.5129e-03  2.4587e-04  9.6408e-05  0:00:13  453
  3967  1.5562e-03  3.8544e-04  1.3630e-04  1.5238e-03  2.4634e-04  9.6368e-05  0:01:41  452
  3968  1.5666e-03  3.8971e-04  1.3664e-04  1.5345e-03  2.4680e-04  9.6317e-05  0:01:21  451
  3969  1.5768e-03  3.9613e-04  1.3659e-04  1.5451e-03  2.4723e-04  9.6268e-05  0:01:04  450

  iter  continuity  x-velocity  y-velocity      energy           k       omega     time/iter
  3970  1.5864e-03  3.8228e-04  1.3585e-04  1.5549e-03  2.4762e-04  9.6177e-05  0:00:51  449
  3971  1.5961e-03  3.7617e-04  1.3518e-04  1.5649e-03  2.4795e-04  9.6057e-05  0:00:41  448
  3972  1.6059e-03  3.7357e-04  1.3436e-04  1.5750e-03  2.4827e-04  9.5928e-05  0:00:33  447
  3973  1.6157e-03  3.7308e-04  1.3351e-04  1.5851e-03  2.4853e-04  9.5772e-05  0:00:26  446
  3974  1.6250e-03  3.6176e-04  1.3337e-04  1.5946e-03  2.4876e-04  9.5598e-05  0:00:21  445
  3975  1.6343e-03  3.5600e-04  1.3433e-04  1.6042e-03  2.4895e-04  9.5418e-05  0:00:17  444
  3976  1.6437e-03  3.5561e-04  1.3587e-04  1.6138e-03  2.4913e-04  9.5265e-05  0:01:42  443
  3977  1.6531e-03  3.5554e-04  1.3754e-04  1.6235e-03  2.4928e-04  9.5114e-05  0:01:21  442
  3978  1.6624e-03  3.5565e-04  1.3926e-04  1.6331e-03  2.4943e-04  9.4978e-05  0:01:05  441
  3979  1.6716e-03  3.5852e-04  1.4070e-04  1.6425e-03  2.4953e-04  9.4848e-05  0:00:52  440
  3980  1.6806e-03  3.5943e-04  1.4122e-04  1.6518e-03  2.4958e-04  9.4711e-05  0:00:41  439

  iter  continuity  x-velocity  y-velocity      energy           k       omega     time/iter
  3981  1.6897e-03  3.6058e-04  1.4100e-04  1.6612e-03  2.4954e-04  9.4567e-05  0:00:33  438
  3982  1.6988e-03  3.6099e-04  1.4059e-04  1.6705e-03  2.4944e-04  9.4424e-05  0:00:26  437
  3983  1.7077e-03  3.6200e-04  1.4055e-04  1.6797e-03  2.4930e-04  9.4288e-05  0:00:21  436
  3984  1.7167e-03  3.6300e-04  1.4084e-04  1.6888e-03  2.4907e-04  9.4145e-05  0:00:17  435
  3985  1.7256e-03  3.7103e-04  1.4133e-04  1.6979e-03  2.4879e-04  9.4003e-05  0:01:40  434
  3986  1.7346e-03  3.8642e-04  1.4152e-04  1.7071e-03  2.4847e-04  9.3842e-05  0:01:20  433
  3987  1.7425e-03  3.8235e-04  1.4150e-04  1.7151e-03  2.4812e-04  9.3700e-05  0:01:04  432
  3988  1.7497e-03  3.7112e-04  1.4167e-04  1.7226e-03  2.4773e-04  9.3581e-05  0:00:51  431
  3989  1.7567e-03  3.6099e-04  1.4221e-04  1.7297e-03  2.4729e-04  9.3457e-05  0:00:41  430
  3990  1.7634e-03  3.4782e-04  1.4197e-04  1.7366e-03  2.4683e-04  9.3320e-05  0:00:32  429
  3991  1.7703e-03  3.4252e-04  1.4138e-04  1.7437e-03  2.4633e-04  9.3197e-05  0:00:26  428

  iter  continuity  x-velocity  y-velocity      energy           k       omega     time/iter
  3992  1.7772e-03  3.4082e-04  1.4047e-04  1.7507e-03  2.4581e-04  9.3064e-05  0:00:21  427
  3993  1.7839e-03  3.4091e-04  1.3858e-04  1.7575e-03  2.4524e-04  9.2902e-05  0:00:17  426
  3994  1.7906e-03  3.4256e-04  1.3705e-04  1.7643e-03  2.4467e-04  9.2691e-05  0:00:13  425
  3995  1.7968e-03  3.4326e-04  1.3627e-04  1.7706e-03  2.4406e-04  9.2442e-05  0:01:35  424
  3996  1.8028e-03  3.4638e-04  1.3558e-04  1.7767e-03  2.4338e-04  9.2136e-05  0:01:16  423
  3997  1.8084e-03  3.4738e-04  1.3493e-04  1.7825e-03  2.4262e-04  9.1806e-05  0:01:01  422
  3998  1.8135e-03  3.4651e-04  1.3438e-04  1.7877e-03  2.4178e-04  9.1486e-05  0:00:48  421
  3999  1.8182e-03  3.4686e-04  1.3385e-04  1.7925e-03  2.4091e-04  9.1179e-05  0:00:39  420
  4000  1.8225e-03  3.4635e-04  1.3314e-04  1.7970e-03  2.4001e-04  9.0873e-05  0:00:31  419
  4001  1.8264e-03  3.4671e-04  1.3329e-04  1.8010e-03  2.3910e-04  9.0579e-05  0:00:25  418
  4002  1.8301e-03  3.4695e-04  1.3363e-04  1.8047e-03  2.3817e-04  9.0323e-05  0:00:20  417

  iter  continuity  x-velocity  y-velocity      energy           k       omega     time/iter
  4003  1.8333e-03  3.4471e-04  1.3449e-04  1.8079e-03  2.3719e-04  9.0070e-05  0:00:16  416
  4004  1.8363e-03  3.4391e-04  1.3510e-04  1.8109e-03  2.3617e-04  8.9792e-05  0:01:36  415
  4005  1.8389e-03  3.4741e-04  1.3479e-04  1.8137e-03  2.3512e-04  8.9498e-05  0:01:16  414
  4006  1.8411e-03  3.4863e-04  1.3438e-04  1.8159e-03  2.3402e-04  8.9206e-05  0:01:01  413
  4007  1.8431e-03  3.4714e-04  1.3348e-04  1.8180e-03  2.3286e-04  8.8874e-05  0:00:49  412
  4008  1.8447e-03  3.4739e-04  1.3235e-04  1.8196e-03  2.3162e-04  8.8559e-05  0:00:39  411
  4009  1.8459e-03  3.4612e-04  1.3214e-04  1.8209e-03  2.3036e-04  8.8288e-05  0:00:31  410
  4010  1.8470e-03  3.4718e-04  1.3205e-04  1.8220e-03  2.2907e-04  8.8025e-05  0:00:25  409
  4011  1.8475e-03  3.4672e-04  1.3141e-04  1.8226e-03  2.2772e-04  8.7763e-05  0:00:20  408
  4012  1.8478e-03  3.4977e-04  1.3045e-04  1.8230e-03  2.2638e-04  8.7492e-05  0:00:16  407
  4013  1.8479e-03  3.5477e-04  1.2883e-04  1.8231e-03  2.2500e-04  8.7240e-05  0:00:13  406

  iter  continuity  x-velocity  y-velocity      energy           k       omega     time/iter
  4014  1.8478e-03  3.6284e-04  1.2671e-04  1.8231e-03  2.2362e-04  8.6996e-05  0:01:31  405
  4015  1.8471e-03  3.6102e-04  1.2492e-04  1.8225e-03  2.2221e-04  8.6718e-05  0:01:13  404
  4016  1.8461e-03  3.6450e-04  1.2387e-04  1.8217e-03  2.2078e-04  8.6436e-05  0:00:58  403
  4017  1.8450e-03  3.7051e-04  1.2290e-04  1.8206e-03  2.1933e-04  8.6149e-05  0:00:46  402
  4018  1.8433e-03  3.7063e-04  1.2220e-04  1.8190e-03  2.1790e-04  8.5951e-05  0:00:37  401
  4019  1.8412e-03  3.6989e-04  1.2162e-04  1.8170e-03  2.1641e-04  8.5766e-05  0:00:29  400
  4020  1.8385e-03  3.6927e-04  1.2098e-04  1.8144e-03  2.1490e-04  8.5548e-05  0:00:24  399
  4021  1.8357e-03  3.7208e-04  1.2045e-04  1.8117e-03  2.1337e-04  8.5306e-05  0:00:19  398
  4022  1.8323e-03  3.6779e-04  1.1998e-04  1.8083e-03  2.1180e-04  8.5018e-05  0:00:15  397
  4023  1.8283e-03  3.5381e-04  1.1863e-04  1.8043e-03  2.1020e-04  8.4721e-05  0:00:12  396
  4024  1.8242e-03  3.4914e-04  1.1690e-04  1.8003e-03  2.0854e-04  8.4333e-05  0:00:10  395

  iter  continuity  x-velocity  y-velocity      energy           k       omega     time/iter
  4025  1.8199e-03  3.4981e-04  1.1510e-04  1.7960e-03  2.0683e-04  8.3836e-05  0:01:26  394
  4026  1.8150e-03  3.4637e-04  1.1385e-04  1.7912e-03  2.0508e-04  8.3477e-05  0:01:09  393
  4027  1.8097e-03  3.3996e-04  1.1308e-04  1.7859e-03  2.0329e-04  8.3242e-05  0:00:55  392
  4028  1.8043e-03  3.3549e-04  1.1210e-04  1.7805e-03  2.0147e-04  8.2970e-05  0:00:44  391
  4029  1.7982e-03  3.2383e-04  1.1122e-04  1.7745e-03  1.9959e-04  8.2653e-05  0:00:35  390
  4030  1.7920e-03  3.1966e-04  1.1037e-04  1.7683e-03  1.9768e-04  8.2363e-05  0:00:28  389
  4031  1.7856e-03  3.2190e-04  1.1113e-04  1.7619e-03  1.9574e-04  8.1970e-05  0:00:22  388
  4032  1.7790e-03  3.2926e-04  1.1229e-04  1.7554e-03  1.9379e-04  8.1525e-05  0:00:18  387
  4033  1.7719e-03  3.3098e-04  1.1451e-04  1.7483e-03  1.9183e-04  8.0972e-05  0:00:14  386
  4034  1.7643e-03  3.2830e-04  1.1471e-04  1.7406e-03  1.8986e-04  8.0623e-05  0:00:11  385
  4035  1.7562e-03  3.3091e-04  1.1388e-04  1.7326e-03  1.8785e-04  8.0448e-05  0:01:26  384

  iter  continuity  x-velocity  y-velocity      energy           k       omega     time/iter
  4036  1.7481e-03  3.3844e-04  1.1298e-04  1.7245e-03  1.8587e-04  8.0238e-05  0:01:08  383
  4037  1.7396e-03  3.3941e-04  1.1241e-04  1.7161e-03  1.8391e-04  8.0014e-05  0:00:55  382
  4038  1.7307e-03  3.4192e-04  1.1229e-04  1.7072e-03  1.8198e-04  7.9723e-05  0:00:44  381
  4039  1.7217e-03  3.4603e-04  1.1147e-04  1.6981e-03  1.8003e-04  7.9384e-05  0:00:35  380
  4040  1.7119e-03  3.4674e-04  1.1037e-04  1.6885e-03  1.7811e-04  7.9125e-05  0:00:28  379
  4041  1.7017e-03  3.3728e-04  1.0920e-04  1.6784e-03  1.7622e-04  7.8920e-05  0:00:22  378
  4042  1.6912e-03  3.2574e-04  1.0832e-04  1.6679e-03  1.7433e-04  7.8751e-05  0:00:18  377
  4043  1.6807e-03  3.1936e-04  1.0668e-04  1.6575e-03  1.7245e-04  7.8590e-05  0:00:14  376
  4044  1.6703e-03  3.1837e-04  1.0472e-04  1.6472e-03  1.7058e-04  7.8427e-05  0:00:11  375
  4045  1.6595e-03  3.1373e-04  1.0290e-04  1.6365e-03  1.6871e-04  7.8235e-05  0:01:24  374
  4046  1.6487e-03  3.1307e-04  1.0110e-04  1.6259e-03  1.6689e-04  7.7983e-05  0:01:07  373

  iter  continuity  x-velocity  y-velocity      energy           k       omega     time/iter
  4047  1.6379e-03  3.1082e-04  9.8838e-05  1.6151e-03  1.6504e-04  7.7616e-05  0:00:53  372
  4048  1.6268e-03  3.0717e-04  9.6754e-05  1.6041e-03  1.6319e-04  7.7380e-05  0:00:43  371
  4049  1.6155e-03  3.0119e-04  9.5016e-05  1.5929e-03  1.6135e-04  7.7296e-05  0:00:34  370
  4050  1.6043e-03  2.9884e-04  9.3277e-05  1.5817e-03  1.5950e-04  7.7176e-05  0:00:27  369
  4051  1.5930e-03  2.9460e-04  9.2059e-05  1.5704e-03  1.5766e-04  7.7031e-05  0:00:22  368
  4052  1.5818e-03  2.9486e-04  9.1033e-05  1.5592e-03  1.5587e-04  7.6836e-05  0:00:17  367
  4053  1.5703e-03  2.9593e-04  9.0437e-05  1.5478e-03  1.5408e-04  7.6655e-05  0:00:14  366
  4054  1.5588e-03  2.9685e-04  8.9979e-05  1.5363e-03  1.5233e-04  7.6403e-05  0:00:11  365
  4055  1.5474e-03  3.0023e-04  9.0139e-05  1.5249e-03  1.5060e-04  7.6170e-05  0:01:22  364
  4056  1.5360e-03  3.0703e-04  9.1536e-05  1.5136e-03  1.4891e-04  7.5957e-05  0:01:05  363
  4057  1.5243e-03  3.1332e-04  9.4675e-05  1.5019e-03  1.4729e-04  7.5747e-05  0:00:52  362

  iter  continuity  x-velocity  y-velocity      energy           k       omega     time/iter
  4058  1.5125e-03  3.2038e-04  9.6890e-05  1.4902e-03  1.4572e-04  7.5561e-05  0:00:41  361
  4059  1.5001e-03  3.1682e-04  9.6924e-05  1.4778e-03  1.4418e-04  7.5376e-05  0:00:33  360
  4060  1.4876e-03  3.1171e-04  9.5751e-05  1.4653e-03  1.4272e-04  7.5190e-05  0:00:26  359
  4061  1.4752e-03  3.1633e-04  9.4935e-05  1.4529e-03  1.4128e-04  7.5002e-05  0:00:21  358
  4062  1.4626e-03  3.2065e-04  9.4766e-05  1.4405e-03  1.3985e-04  7.4831e-05  0:00:17  357
  4063  1.4494e-03  3.1817e-04  9.4502e-05  1.4273e-03  1.3845e-04  7.4609e-05  0:00:13  356
  4064  1.4357e-03  3.1378e-04  9.2952e-05  1.4137e-03  1.3707e-04  7.4379e-05  0:00:11  355
  4065  1.4215e-03  3.0858e-04  9.0860e-05  1.3995e-03  1.3569e-04  7.4119e-05  0:01:19  354
  4066  1.4073e-03  3.0292e-04  8.9437e-05  1.3855e-03  1.3433e-04  7.3856e-05  0:01:03  353
  4067  1.3934e-03  3.0265e-04  8.8474e-05  1.3715e-03  1.3301e-04  7.3614e-05  0:00:50  352
  4068  1.3790e-03  2.9970e-04  8.8735e-05  1.3572e-03  1.3176e-04  7.3375e-05  0:00:40  351

  iter  continuity  x-velocity  y-velocity      energy           k       omega     time/iter
  4069  1.3644e-03  2.9687e-04  8.9038e-05  1.3426e-03  1.3057e-04  7.3174e-05  0:00:32  350
  4070  1.3494e-03  2.9067e-04  8.8593e-05  1.3277e-03  1.2941e-04  7.2917e-05  0:00:26  349
  4071  1.3345e-03  2.8229e-04  8.7799e-05  1.3129e-03  1.2831e-04  7.2653e-05  0:00:20  348
  4072  1.3201e-03  2.8204e-04  8.6831e-05  1.2985e-03  1.2728e-04  7.2467e-05  0:00:16  347
  4073  1.3058e-03  2.8475e-04  8.6101e-05  1.2843e-03  1.2630e-04  7.2339e-05  0:00:13  346
  4074  1.2915e-03  2.8304e-04  8.5981e-05  1.2700e-03  1.2543e-04  7.2178e-05  0:00:10  345
  4075  1.2774e-03  2.8284e-04  8.5825e-05  1.2560e-03  1.2468e-04  7.2026e-05  0:01:17  344
  4076  1.2635e-03  2.8663e-04  8.5438e-05  1.2421e-03  1.2398e-04  7.1881e-05  0:01:01  343
  4077  1.2494e-03  2.8459e-04  8.4763e-05  1.2280e-03  1.2336e-04  7.1718e-05  0:00:49  342
  4078  1.2350e-03  2.8130e-04  8.4541e-05  1.2137e-03  1.2280e-04  7.1534e-05  0:00:39  341
  4079  1.2206e-03  2.8101e-04  8.4434e-05  1.1994e-03  1.2233e-04  7.1303e-05  0:00:31  340

  iter  continuity  x-velocity  y-velocity      energy           k       omega     time/iter
  4080  1.2062e-03  2.7856e-04  8.4493e-05  1.1850e-03  1.2193e-04  7.1116e-05  0:00:25  339
  4081  1.1920e-03  2.8600e-04  8.5135e-05  1.1708e-03  1.2163e-04  7.0958e-05  0:00:20  338
  4082  1.1774e-03  2.8354e-04  8.5216e-05  1.1563e-03  1.2142e-04  7.0820e-05  0:00:16  337
  4083  1.1631e-03  2.8118e-04  8.5504e-05  1.1420e-03  1.2128e-04  7.0637e-05  0:00:13  336
  4084  1.1488e-03  2.8010e-04  8.6343e-05  1.1277e-03  1.2120e-04  7.0422e-05  0:00:10  335
  4085  1.1344e-03  2.7489e-04  8.6672e-05  1.1135e-03  1.2125e-04  7.0186e-05  0:01:15  334
  4086  1.1203e-03  2.7037e-04  8.7114e-05  1.0995e-03  1.2136e-04  6.9951e-05  0:01:00  333
  4087  1.1066e-03  2.7135e-04  8.7868e-05  1.0858e-03  1.2155e-04  6.9683e-05  0:00:48  332
  4088  1.0929e-03  2.7032e-04  8.8612e-05  1.0723e-03  1.2183e-04  6.9298e-05  0:00:38  331
  4089  1.0797e-03  2.6908e-04  8.8803e-05  1.0591e-03  1.2221e-04  6.8984e-05  0:00:30  330
  4090  1.0671e-03  2.7397e-04  8.8011e-05  1.0465e-03  1.2268e-04  6.8658e-05  0:00:24  329

  iter  continuity  x-velocity  y-velocity      energy           k       omega     time/iter
  4091  1.0543e-03  2.6930e-04  8.7916e-05  1.0336e-03  1.2328e-04  6.8409e-05  0:00:19  328
  4092  1.0423e-03  2.7428e-04  8.8137e-05  1.0215e-03  1.2395e-04  6.8323e-05  0:00:15  327
  4093  1.0307e-03  2.8187e-04  8.7710e-05  1.0099e-03  1.2468e-04  6.8259e-05  0:00:12  326
  4094  1.0194e-03  2.9207e-04  8.7886e-05  9.9841e-04  1.2550e-04  6.8204e-05  0:00:10  325
  4095  1.0074e-03  2.9461e-04  8.7780e-05  9.8637e-04  1.2637e-04  6.8144e-05  0:00:08  324
  4096  9.9475e-04  2.8979e-04  8.7158e-05  9.7380e-04  1.2729e-04  6.8003e-05  0:01:11  323
! 4096 solution is converged

> /plot/plot yes loading.txt yes no no absolute-pressure yes 1 0 upper-blade ()

> ;exit yes

> (cx-gui-do cx-activate-item "MenuBar*WriteSubMenu*Case...")
/exit y

Posting ANSYS Product Improvement Program performance data 
Done.
(cx-gui-do cx-activate-item "Question*OK")
