
              Welcome to ANSYS Fluent 2021 R2

              Copyright 1987-2021 ANSYS, Inc. All Rights Reserved.
              Unauthorized use, distribution or duplication is prohibited.
              This product is subject to U.S. laws governing export and re-export.
              For full Legal Notice, see documentation.

Build Time: May 28 2021 13:54:56 EDT  Build Id: 10201  
 

     --------------------------------------------------------------
     This is an academic version of ANSYS FLUENT. Usage of this product
     license is limited to the terms and conditions specified in your ANSYS
     license form, additional terms section.
     --------------------------------------------------------------
Host spawning Node 0 on machine "WL-CH-009" (win64).

-------------------------------------------------------------------------------
ID    Hostname   Core   O.S.         PID    Vendor                       
-------------------------------------------------------------------------------
n31   WL-CH-009  32/36  Windows-x64  30144  Intel(R) Xeon(R) W-2295      
n30   WL-CH-009  31/36  Windows-x64  11456  Intel(R) Xeon(R) W-2295      
n29   WL-CH-009  30/36  Windows-x64  17672  Intel(R) Xeon(R) W-2295      
n28   WL-CH-009  29/36  Windows-x64  33216  Intel(R) Xeon(R) W-2295      
n27   WL-CH-009  28/36  Windows-x64  41772  Intel(R) Xeon(R) W-2295      
n26   WL-CH-009  27/36  Windows-x64  21256  Intel(R) Xeon(R) W-2295      
n25   WL-CH-009  26/36  Windows-x64  38508  Intel(R) Xeon(R) W-2295      
n24   WL-CH-009  25/36  Windows-x64  30012  Intel(R) Xeon(R) W-2295      
n23   WL-CH-009  24/36  Windows-x64  23248  Intel(R) Xeon(R) W-2295      
n22   WL-CH-009  23/36  Windows-x64  23728  Intel(R) Xeon(R) W-2295      
n21   WL-CH-009  22/36  Windows-x64  41372  Intel(R) Xeon(R) W-2295      
n20   WL-CH-009  21/36  Windows-x64  43408  Intel(R) Xeon(R) W-2295      
n19   WL-CH-009  20/36  Windows-x64  36120  Intel(R) Xeon(R) W-2295      
n18   WL-CH-009  19/36  Windows-x64  11488  Intel(R) Xeon(R) W-2295      
n17   WL-CH-009  18/36  Windows-x64  27016  Intel(R) Xeon(R) W-2295      
n16   WL-CH-009  17/36  Windows-x64  21380  Intel(R) Xeon(R) W-2295      
n15   WL-CH-009  16/36  Windows-x64  5184   Intel(R) Xeon(R) W-2295      
n14   WL-CH-009  15/36  Windows-x64  34312  Intel(R) Xeon(R) W-2295      
n13   WL-CH-009  14/36  Windows-x64  44592  Intel(R) Xeon(R) W-2295      
n12   WL-CH-009  13/36  Windows-x64  31208  Intel(R) Xeon(R) W-2295      
-------------------------------------------------------------------------------
ID    Hostname   Core   O.S.         PID    Vendor                       
-------------------------------------------------------------------------------
n11   WL-CH-009  12/36  Windows-x64  18624  Intel(R) Xeon(R) W-2295      
n10   WL-CH-009  11/36  Windows-x64  25668  Intel(R) Xeon(R) W-2295      
n9    WL-CH-009  10/36  Windows-x64  17572  Intel(R) Xeon(R) W-2295      
n8    WL-CH-009  9/36   Windows-x64  39228  Intel(R) Xeon(R) W-2295      
n7    WL-CH-009  8/36   Windows-x64  32436  Intel(R) Xeon(R) W-2295      
n6    WL-CH-009  7/36   Windows-x64  41812  Intel(R) Xeon(R) W-2295      
n5    WL-CH-009  6/36   Windows-x64  8656   Intel(R) Xeon(R) W-2295      
n4    WL-CH-009  5/36   Windows-x64  17664  Intel(R) Xeon(R) W-2295      
n3    WL-CH-009  4/36   Windows-x64  12508  Intel(R) Xeon(R) W-2295      
n2    WL-CH-009  3/36   Windows-x64  22844  Intel(R) Xeon(R) W-2295      
n1    WL-CH-009  2/36   Windows-x64  41636  Intel(R) Xeon(R) W-2295      
n0*   WL-CH-009  1/36   Windows-x64  29984  Intel(R) Xeon(R) W-2295      
host  WL-CH-009         Windows-x64  43104  Intel(R) Xeon(R) W-2295      

MPI Option Selected: intel
Selected system interconnect: default
-------------------------------------------------------------------------------

Cleanup script file is E:\\MATLAB\\RANS_optimisation\\cleanup-fluent-WL-CH-009-43104.bat

Posting ANSYS Product Improvement Program startup data
Done.

Reading journal file E:\MATLAB\RANS_optimisation\run13\fluent_input.jou...

> /sync-chdir E:\MATLAB\RANS_optimisation\run13

> /file/read-case "grid.msh"
Reading "grid.msh"...

Buffering for file scan...

  112722 quadrilateral cells, zone  9.
  224998 2D interior faces, zone  2.
Warning: Reversing 238 faces, zone  2.
     237 2D pressure-inlet faces, zone  3.
Warning: Reversing 237 faces, zone  3.
     477 2D pressure-outlet faces, zone  4.
Warning: Reversing 477 faces, zone  4.
     477 2D pressure-outlet faces, zone  5.
     207 2D pressure-outlet faces, zone  6.
     253 2D wall faces, zone  7.
Warning: Reversing 15 faces, zone  7.
     253 2D wall faces, zone  8.
Warning: Reversing 223 faces, zone  8.
  113674 nodes.

Building...
     mesh
	auto partitioning mesh by Metis (fast),
	distributing mesh
		parts................................,
		faces................................,
		nodes................................,
		cells................................,
        bandwidth reduction using Reverse Cuthill-McKee: 2716/83 = 32.7229
     materials,
     interface,
     domains,
     zones,
	fluid-9
	wall-8
	wall-7
	pressure-outlet-6
	pressure-outlet-5
	pressure-outlet-4
	pressure-inlet-3
	interior-2
     parallel,
Done.

Preparing mesh for display...
Done.
 

> /define/boundary-conditions/modify-zones/zone-name 3 inlet 

> /define/boundary-conditions/modify-zones/zone-name 4 upper 

> /define/boundary-conditions/modify-zones/zone-name 5 lower 

> /define/boundary-conditions/modify-zones/zone-name 6 outlet

> /define/boundary-conditions/modify-zones/zone-name 7 upper-blade

> /define/boundary-conditions/modify-zones/zone-name 8 lower-blade

> /define/materials/change-create air air air is a fluid
yes 
Density
ideal-gas no data required.

yes 
Cp (Specific Heat)
constant 1005 
yes 
Thermal Conductivity
expression "DynamicViscosity*1005 [J/(kg K)]/0.72"
 yes 
Viscosity
sutherland three-coefficient-method 5.83247e-04 273 110.4 
no no no

Note: Enabling energy equation as required by material density method.

> /define/operating-conditions/operating-pressure 0

> /define/models/viscous/kw-sst? yes

> /define/boundary-conditions/zone-type inlet pressure-inlet 

> /define/boundary-conditions/pressure-inlet (inlet)
inlet yes no 74575.2 no 46984 no 300 no yes no no yes 0.5 1

> /define/boundary-conditions/zone-type outlet pressure-outlet 

> /define/boundary-conditions/bc-settings/pressure-outlet 0. 65 

> /define/boundary-conditions/pressure-outlet (outlet upper lower)
outlet yes no 46984 no 300 no yes no no yes 0.5 1 yes no no

> /define/boundary-conditions/copy-bc outlet (upper lower)Copy outlet boundary conditions to lower
Copy outlet boundary conditions to upper


> /define/boundary-conditions/wall (upper-blade lower-blade)
upper-blade 0 no 0 no no no 0 no no no no 0 no 0.5 no 1

> /define/boundary-conditions/copy-bc upper-blade (lower-blade)Copy upper-blade boundary conditions to lower-blade


> /define/models/solver/densit-based-implicit yes

> /file/read-data E:\MATLAB\RANS_optimisation\clean.dat

Reading "E:\MATLAB\RANS_optimisation\clean.dat"...



Warning: case and data files are inconsistent; zone 7, case [1399,1651], data [1399,1652]
Warning: case and data files are inconsistent; zone 8, case [1652,1904], data [1653,1904]
Warning: case and data files are inconsistent; zone 7, case [1399,1651], data [1399,1652]
Warning: case and data files are inconsistent; zone 8, case [1652,1904], data [1653,1904]
Warning: case and data files are inconsistent; zone 7, case [1399,1651], data [1399,1652]
Warning: case and data files are inconsistent; zone 8, case [1652,1904], data [1653,1904]
Warning: case and data files are inconsistent; zone 7, case [1399,1651], data [1399,1652]
Warning: case and data files are inconsistent; zone 8, case [1652,1904], data [1653,1904]
Warning: case and data files are inconsistent; zone 7, case [1399,1651], data [1399,1652]
Warning: case and data files are inconsistent; zone 8, case [1652,1904], data [1653,1904]
Warning: case and data files are inconsistent; zone 7, case [1399,1651], data [1399,1652]
Warning: case and data files are inconsistent; zone 8, case [1652,1904], data [1653,1904]
Warning: case and data files are inconsistent; zone 7, case [1399,1651], data [1399,1652]
Warning: case and data files are inconsistent; zone 8, case [1652,1904], data [1653,1904]
Warning: case and data files are inconsistent; zone 7, case [1399,1651], data [1399,1652]
Warning: case and data files are inconsistent; zone 8, case [1652,1904], data [1653,1904]
Warning: case and data files are inconsistent; zone 7, case [1399,1651], data [1399,1652]
Warning: case and data files are inconsistent; zone 8, case [1652,1904], data [1653,1904]
Warning: case and data files are inconsistent; zone 7, case [1399,1651], data [1399,1652]
Warning: case and data files are inconsistent; zone 8, case [1652,1904], data [1653,1904]
Warning: case and data files are inconsistent; zone 7, case [1399,1651], data [1399,1652]
Warning: case and data files are inconsistent; zone 8, case [1652,1904], data [1653,1904]
Warning: case and data files are inconsistent; zone 7, case [1399,1651], data [1399,1652]
Warning: case and data files are inconsistent; zone 8, case [1652,1904], data [1653,1904]
Warning: case and data files are inconsistent; zone 7, case [1399,1651], data [1399,1652]
Warning: case and data files are inconsistent; zone 8, case [1652,1904], data [1653,1904]
Parallel variables...
Done.

> ;/solve/initialize/initialize-flow
;/solve/initialize/compute-defaults/pressure-inlet inlet
;/solve/initialize/initialize-flow yes
;/solve/initialize/hyb-initialization
/solve/iterate 2000

  iter  continuity  x-velocity  y-velocity      energy           k       omega     time/iter
  2419  9.9521e-04  3.5719e-04  6.8654e-05  9.7828e-04  1.7105e-04  4.2984e-05  0:00:00 2000
  2420  9.4634e-02  6.6719e-02  5.5265e-02  9.4641e-02  4.0691e-03  1.5798e-02  0:33:19 1999
  2421  8.7023e-02  4.9538e-02  6.2203e-02  8.8105e-02  3.8923e-03  1.0247e-02  0:26:38 1998
  2422  6.3520e-02  3.3601e-02  5.7446e-02  6.4303e-02  3.6908e-03  8.1141e-03  0:21:18 1997
  2423  4.7057e-02  2.4900e-02  5.0740e-02  4.6930e-02  3.4893e-03  6.8349e-03  0:17:02 1996
  2424  3.6760e-02  2.0872e-02  4.1671e-02  3.6100e-02  3.2912e-03  6.2198e-03  0:13:37 1995
  2425  3.0283e-02  1.8848e-02  3.2615e-02  2.9536e-02  3.0997e-03  5.7043e-03  0:10:53 1994
  2426  2.6316e-02  1.7393e-02  2.5353e-02  2.5701e-02  2.9198e-03  5.1933e-03  0:08:42 1993
  2427  2.4071e-02  1.6049e-02  2.0229e-02  2.3636e-02  2.7519e-03  4.6938e-03  0:06:58 1992
  2428  2.2748e-02  1.4796e-02  1.6659e-02  2.2451e-02  2.6054e-03  4.2332e-03  0:05:34 1991
  2429  2.1749e-02  1.3559e-02  1.4363e-02  2.1539e-02  2.4803e-03  3.7515e-03  0:04:27 1990

  iter  continuity  x-velocity  y-velocity      energy           k       omega     time/iter
  2430  2.0777e-02  1.2308e-02  1.2908e-02  2.0615e-02  2.3736e-03  3.2877e-03  0:10:11 1989
  2431  1.9707e-02  1.1070e-02  1.1897e-02  1.9557e-02  2.2830e-03  2.9103e-03  0:08:09 1988
  2432  1.8554e-02  9.8667e-03  1.1112e-02  1.8390e-02  2.2055e-03  2.6502e-03  0:06:31 1987
  2433  1.7385e-02  8.7302e-03  1.0452e-02  1.7190e-02  2.1379e-03  2.4614e-03  0:05:13 1986
  2434  1.6286e-02  7.7199e-03  9.8419e-03  1.6047e-02  2.0751e-03  2.3010e-03  0:04:10 1985
  2435  1.5339e-02  6.9352e-03  9.2688e-03  1.5050e-02  2.0165e-03  2.1864e-03  0:03:20 1984
  2436  1.4565e-02  6.4232e-03  8.7059e-03  1.4226e-02  1.9601e-03  2.1369e-03  0:02:40 1983
  2437  1.3984e-02  6.2010e-03  8.1534e-03  1.3600e-02  1.9054e-03  2.1294e-03  0:02:08 1982
  2438  1.3564e-02  6.2631e-03  7.6441e-03  1.3142e-02  1.8520e-03  2.1506e-03  0:01:42 1981
  2439  1.3261e-02  6.5090e-03  7.1385e-03  1.2814e-02  1.8005e-03  2.1790e-03  0:01:22 1980
  2440  1.3013e-02  6.8418e-03  6.6583e-03  1.2544e-02  1.7509e-03  2.2059e-03  0:07:41 1979

  iter  continuity  x-velocity  y-velocity      energy           k       omega     time/iter
  2441  1.2788e-02  7.2059e-03  6.2576e-03  1.2302e-02  1.7049e-03  2.2160e-03  0:06:09 1978
  2442  1.2591e-02  7.5457e-03  5.9259e-03  1.2092e-02  1.6649e-03  2.2249e-03  0:04:55 1977
  2443  1.2479e-02  7.8246e-03  5.6694e-03  1.1971e-02  1.6301e-03  2.2311e-03  0:03:56 1976
  2444  1.2523e-02  8.0203e-03  5.4812e-03  1.2007e-02  1.6008e-03  2.2378e-03  0:03:08 1975
  2445  1.2764e-02  8.1389e-03  5.3499e-03  1.2244e-02  1.5784e-03  2.2464e-03  0:02:31 1974
  2446  1.3199e-02  8.1826e-03  5.2489e-03  1.2683e-02  1.5609e-03  2.2527e-03  0:02:01 1973
  2447  1.3813e-02  8.1689e-03  5.1721e-03  1.3303e-02  1.5477e-03  2.2492e-03  0:01:36 1972
  2448  1.4580e-02  8.1045e-03  5.1121e-03  1.4080e-02  1.5392e-03  2.2238e-03  0:01:17 1971
  2449  1.5483e-02  8.0093e-03  5.0417e-03  1.4997e-02  1.5328e-03  2.1894e-03  0:01:02 1970
  2450  1.6502e-02  7.9109e-03  4.9729e-03  1.6033e-02  1.5300e-03  2.1623e-03  0:00:49 1969
  2451  1.7586e-02  7.8079e-03  4.8588e-03  1.7132e-02  1.5296e-03  2.1299e-03  0:07:13 1968

  iter  continuity  x-velocity  y-velocity      energy           k       omega     time/iter
  2452  1.8650e-02  7.7174e-03  4.7322e-03  1.8211e-02  1.5309e-03  2.1050e-03  0:05:46 1967
  2453  1.9659e-02  7.6473e-03  4.6039e-03  1.9235e-02  1.5331e-03  2.0760e-03  0:04:37 1966
  2454  2.0571e-02  7.5950e-03  4.4558e-03  2.0162e-02  1.5363e-03  2.0516e-03  0:03:41 1965
  2455  2.1402e-02  7.5702e-03  4.3102e-03  2.1010e-02  1.5411e-03  2.0252e-03  0:02:57 1964
  2456  2.2115e-02  7.5736e-03  4.1357e-03  2.1740e-02  1.5482e-03  2.0117e-03  0:02:22 1963
  2457  2.2714e-02  7.5975e-03  3.9526e-03  2.2358e-02  1.5559e-03  2.0026e-03  0:01:53 1962
  2458  2.3151e-02  7.6374e-03  3.7528e-03  2.2810e-02  1.5628e-03  1.9961e-03  0:01:30 1961
  2459  2.3393e-02  7.6942e-03  3.6211e-03  2.3066e-02  1.5725e-03  1.9941e-03  0:01:12 1960
  2460  2.3463e-02  7.7518e-03  3.4868e-03  2.3151e-02  1.5818e-03  1.9950e-03  0:00:58 1959
  2461  2.3371e-02  7.7921e-03  3.4289e-03  2.3073e-02  1.5940e-03  1.9963e-03  0:07:18 1958
  2462  2.3159e-02  7.8224e-03  3.3808e-03  2.2876e-02  1.6046e-03  1.9948e-03  0:05:50 1957

  iter  continuity  x-velocity  y-velocity      energy           k       omega     time/iter
  2463  2.2847e-02  7.8395e-03  3.3334e-03  2.2577e-02  1.6165e-03  1.9876e-03  0:04:40 1956
  2464  2.2441e-02  7.8321e-03  3.2759e-03  2.2184e-02  1.6308e-03  1.9769e-03  0:03:44 1955
  2465  2.1961e-02  7.8058e-03  3.2561e-03  2.1716e-02  1.6411e-03  1.9706e-03  0:02:59 1954
  2466  2.1398e-02  7.7548e-03  3.2882e-03  2.1164e-02  1.6555e-03  1.9605e-03  0:02:23 1953
  2467  2.0749e-02  7.6701e-03  3.3665e-03  2.0524e-02  1.6653e-03  1.9592e-03  0:01:54 1952
  2468  2.0039e-02  7.5533e-03  3.4372e-03  1.9820e-02  1.6763e-03  1.9510e-03  0:01:31 1951
  2469  1.9294e-02  7.4344e-03  3.4506e-03  1.9081e-02  1.6851e-03  1.9381e-03  0:01:13 1950
  2470  1.8520e-02  7.3058e-03  3.4677e-03  1.8316e-02  1.6890e-03  1.9244e-03  0:00:58 1949
  2471  1.7724e-02  7.1668e-03  3.4614e-03  1.7529e-02  1.6965e-03  1.9045e-03  0:00:47 1948
  2472  1.6913e-02  7.0227e-03  3.4399e-03  1.6723e-02  1.6980e-03  1.8767e-03  0:07:07 1947
  2473  1.6097e-02  6.8823e-03  3.4340e-03  1.5912e-02  1.7001e-03  1.8492e-03  0:05:41 1946

  iter  continuity  x-velocity  y-velocity      energy           k       omega     time/iter
  2474  1.5291e-02  6.7287e-03  3.4578e-03  1.5108e-02  1.7008e-03  1.8236e-03  0:04:33 1945
  2475  1.4517e-02  6.5640e-03  3.5125e-03  1.4336e-02  1.6998e-03  1.7996e-03  0:03:38 1944
  2476  1.3799e-02  6.4049e-03  3.5025e-03  1.3623e-02  1.6987e-03  1.7885e-03  0:02:54 1943
  2477  1.3131e-02  6.2620e-03  3.4913e-03  1.2961e-02  1.6939e-03  1.7766e-03  0:02:19 1942
  2478  1.2534e-02  6.1324e-03  3.4741e-03  1.2373e-02  1.6893e-03  1.7606e-03  0:01:52 1941
  2479  1.1983e-02  5.9955e-03  3.4348e-03  1.1828e-02  1.6839e-03  1.7485e-03  0:01:29 1940
  2480  1.1502e-02  5.8751e-03  3.4037e-03  1.1354e-02  1.6798e-03  1.7264e-03  0:01:11 1939
  2481  1.1068e-02  5.7553e-03  3.3900e-03  1.0926e-02  1.6763e-03  1.7004e-03  0:00:57 1938
  2482  1.0730e-02  5.6194e-03  3.4067e-03  1.0597e-02  1.6721e-03  1.6845e-03  0:00:46 1937
  2483  1.0476e-02  5.4924e-03  3.3967e-03  1.0355e-02  1.6693e-03  1.6719e-03  0:07:04 1936
  2484  1.0261e-02  5.3816e-03  3.3769e-03  1.0146e-02  1.6680e-03  1.6603e-03  0:05:39 1935

  iter  continuity  x-velocity  y-velocity      energy           k       omega     time/iter
  2485  1.0075e-02  5.2794e-03  3.3404e-03  9.9656e-03  1.6655e-03  1.6513e-03  0:04:31 1934
  2486  9.9396e-03  5.1766e-03  3.2927e-03  9.8380e-03  1.6624e-03  1.6394e-03  0:03:37 1933
  2487  9.8587e-03  5.0842e-03  3.2460e-03  9.7636e-03  1.6612e-03  1.6226e-03  0:02:53 1932
  2488  9.8500e-03  4.9837e-03  3.2071e-03  9.7657e-03  1.6654e-03  1.6083e-03  0:02:18 1931
  2489  9.8619e-03  4.8728e-03  3.1810e-03  9.7818e-03  1.6680e-03  1.5961e-03  0:01:51 1930
  2490  9.8873e-03  4.7706e-03  3.1209e-03  9.8071e-03  1.6699e-03  1.5870e-03  0:01:29 1929
  2491  9.9429e-03  4.6795e-03  3.0747e-03  9.8647e-03  1.6717e-03  1.5750e-03  0:01:11 1928
  2492  1.0015e-02  4.5972e-03  3.0231e-03  9.9402e-03  1.6749e-03  1.5667e-03  0:00:57 1927
  2493  1.0105e-02  4.5315e-03  2.9636e-03  1.0035e-02  1.6801e-03  1.5638e-03  0:07:10 1926
  2494  1.0210e-02  4.4746e-03  2.9062e-03  1.0146e-02  1.6848e-03  1.5628e-03  0:05:44 1925
  2495  1.0297e-02  4.4060e-03  2.8308e-03  1.0235e-02  1.6891e-03  1.5638e-03  0:04:35 1924

  iter  continuity  x-velocity  y-velocity      energy           k       omega     time/iter
  2496  1.0391e-02  4.3370e-03  2.7676e-03  1.0329e-02  1.6963e-03  1.5524e-03  0:03:40 1923
  2497  1.0490e-02  4.2681e-03  2.7104e-03  1.0425e-02  1.7059e-03  1.5423e-03  0:02:56 1922
  2498  1.0593e-02  4.2087e-03  2.6478e-03  1.0529e-02  1.7149e-03  1.5325e-03  0:02:21 1921
  2499  1.0684e-02  4.1636e-03  2.5956e-03  1.0619e-02  1.7235e-03  1.5230e-03  0:01:52 1920
  2500  1.0775e-02  4.1350e-03  2.5498e-03  1.0712e-02  1.7327e-03  1.5166e-03  0:01:30 1919
  2501  1.0848e-02  4.1183e-03  2.4830e-03  1.0789e-02  1.7451e-03  1.5081e-03  0:01:12 1918
  2502  1.0910e-02  4.0835e-03  2.4155e-03  1.0855e-02  1.7561e-03  1.5006e-03  0:07:21 1917
  2503  1.0956e-02  4.0488e-03  2.3618e-03  1.0902e-02  1.7648e-03  1.4904e-03  0:05:53 1916
  2504  1.0997e-02  4.0286e-03  2.3026e-03  1.0946e-02  1.7744e-03  1.4778e-03  0:04:42 1915
  2505  1.1035e-02  4.0092e-03  2.2574e-03  1.0986e-02  1.7865e-03  1.4646e-03  0:03:45 1914
  2506  1.1048e-02  3.9944e-03  2.2209e-03  1.1003e-02  1.7996e-03  1.4544e-03  0:03:00 1913

  iter  continuity  x-velocity  y-velocity      energy           k       omega     time/iter
  2507  1.1031e-02  3.9796e-03  2.1809e-03  1.0990e-02  1.8106e-03  1.4443e-03  0:02:24 1912
  2508  1.0997e-02  3.9788e-03  2.1504e-03  1.0959e-02  1.8200e-03  1.4294e-03  0:01:55 1911
  2509  1.0946e-02  3.9783e-03  2.1195e-03  1.0911e-02  1.8300e-03  1.4172e-03  0:01:32 1910
  2510  1.0884e-02  3.9736e-03  2.0887e-03  1.0854e-02  1.8423e-03  1.4097e-03  0:01:14 1909
  2511  1.0827e-02  3.9524e-03  2.0447e-03  1.0803e-02  1.8545e-03  1.3986e-03  0:00:59 1908
  2512  1.0773e-02  3.9466e-03  2.0236e-03  1.0754e-02  1.8654e-03  1.3893e-03  0:07:08 1907
  2513  1.0689e-02  3.9420e-03  2.0119e-03  1.0675e-02  1.8768e-03  1.3745e-03  0:05:43 1906
  2514  1.0575e-02  3.9308e-03  2.0065e-03  1.0563e-02  1.8886e-03  1.3627e-03  0:04:34 1905
  2515  1.0461e-02  3.9338e-03  2.0059e-03  1.0452e-02  1.9022e-03  1.3497e-03  0:03:39 1904
  2516  1.0342e-02  3.9563e-03  2.0193e-03  1.0336e-02  1.9146e-03  1.3359e-03  0:02:55 1903
  2517  1.0217e-02  3.9528e-03  2.0222e-03  1.0215e-02  1.9275e-03  1.3247e-03  0:02:20 1902

  iter  continuity  x-velocity  y-velocity      energy           k       omega     time/iter
  2518  1.0090e-02  3.9419e-03  2.0272e-03  1.0090e-02  1.9404e-03  1.3137e-03  0:01:52 1901
  2519  9.9666e-03  3.9453e-03  2.0347e-03  9.9686e-03  1.9548e-03  1.3042e-03  0:01:30 1900
  2520  9.8544e-03  3.9382e-03  2.0336e-03  9.8577e-03  1.9685e-03  1.2944e-03  0:07:31 1899
  2521  9.7495e-03  3.9226e-03  2.0509e-03  9.7542e-03  1.9819e-03  1.2840e-03  0:06:01 1898
  2522  9.6418e-03  3.9131e-03  2.0696e-03  9.6473e-03  1.9957e-03  1.2751e-03  0:04:49 1897
  2523  9.5433e-03  3.8997e-03  2.0876e-03  9.5494e-03  2.0086e-03  1.2672e-03  0:03:51 1896
  2524  9.4553e-03  3.8938e-03  2.1104e-03  9.4611e-03  2.0211e-03  1.2590e-03  0:03:04 1895
  2525  9.3773e-03  3.8871e-03  2.1341e-03  9.3822e-03  2.0324e-03  1.2493e-03  0:02:28 1894
  2526  9.3127e-03  3.8717e-03  2.1497e-03  9.3163e-03  2.0426e-03  1.2390e-03  0:01:58 1893
  2527  9.2536e-03  3.8396e-03  2.1601e-03  9.2546e-03  2.0517e-03  1.2279e-03  0:01:34 1892
  2528  9.2048e-03  3.8121e-03  2.1698e-03  9.2019e-03  2.0597e-03  1.2194e-03  0:01:15 1891

  iter  continuity  x-velocity  y-velocity      energy           k       omega     time/iter
  2529  9.1813e-03  3.7837e-03  2.1802e-03  9.1737e-03  2.0672e-03  1.2118e-03  0:01:00 1890
  2530  9.1813e-03  3.7560e-03  2.1971e-03  9.1687e-03  2.0745e-03  1.2026e-03  0:07:06 1889
  2531  9.1977e-03  3.7239e-03  2.2117e-03  9.1803e-03  2.0807e-03  1.1919e-03  0:05:41 1888
  2532  9.2246e-03  3.6888e-03  2.2181e-03  9.2017e-03  2.0863e-03  1.1835e-03  0:04:32 1887
  2533  9.2635e-03  3.6544e-03  2.2276e-03  9.2345e-03  2.0913e-03  1.1751e-03  0:03:38 1886
  2534  9.3247e-03  3.6191e-03  2.2347e-03  9.2893e-03  2.0962e-03  1.1645e-03  0:02:54 1885
  2535  9.3942e-03  3.5768e-03  2.2377e-03  9.3523e-03  2.1000e-03  1.1536e-03  0:02:19 1884
  2536  9.4748e-03  3.5319e-03  2.2351e-03  9.4265e-03  2.1029e-03  1.1439e-03  0:01:51 1883
  2537  9.5727e-03  3.4834e-03  2.2264e-03  9.5188e-03  2.1058e-03  1.1347e-03  0:01:29 1882
  2538  9.6824e-03  3.4347e-03  2.2217e-03  9.6228e-03  2.1075e-03  1.1253e-03  0:01:11 1881
  2539  9.7883e-03  3.3847e-03  2.2233e-03  9.7223e-03  2.1097e-03  1.1154e-03  0:00:57 1880

  iter  continuity  x-velocity  y-velocity      energy           k       omega     time/iter
  2540  9.8981e-03  3.3347e-03  2.2217e-03  9.8259e-03  2.1108e-03  1.1080e-03  0:07:01 1879
  2541  1.0018e-02  3.2841e-03  2.2117e-03  9.9408e-03  2.1116e-03  1.1004e-03  0:05:37 1878
  2542  1.0146e-02  3.2322e-03  2.1946e-03  1.0063e-02  2.1110e-03  1.0918e-03  0:04:29 1877
  2543  1.0268e-02  3.1828e-03  2.1752e-03  1.0181e-02  2.1100e-03  1.0827e-03  0:03:35 1876
  2544  1.0390e-02  3.1341e-03  2.1545e-03  1.0299e-02  2.1094e-03  1.0721e-03  0:02:52 1875
  2545  1.0505e-02  3.0831e-03  2.1306e-03  1.0411e-02  2.1086e-03  1.0617e-03  0:02:18 1874
  2546  1.0612e-02  3.0348e-03  2.1013e-03  1.0516e-02  2.1076e-03  1.0520e-03  0:01:50 1873
  2547  1.0698e-02  2.9882e-03  2.0719e-03  1.0600e-02  2.1065e-03  1.0425e-03  0:01:28 1872
  2548  1.0763e-02  2.9437e-03  2.0400e-03  1.0664e-02  2.1045e-03  1.0324e-03  0:01:10 1871
  2549  1.0804e-02  2.8999e-03  2.0073e-03  1.0704e-02  2.1026e-03  1.0240e-03  0:00:56 1870
  2550  1.0822e-02  2.8598e-03  1.9688e-03  1.0720e-02  2.1009e-03  1.0159e-03  0:06:59 1869

  iter  continuity  x-velocity  y-velocity      energy           k       omega     time/iter
  2551  1.0822e-02  2.8270e-03  1.9374e-03  1.0720e-02  2.1000e-03  1.0074e-03  0:05:35 1868
  2552  1.0797e-02  2.7910e-03  1.8943e-03  1.0696e-02  2.0992e-03  9.9733e-04  0:04:28 1867
  2553  1.0752e-02  2.7604e-03  1.8519e-03  1.0651e-02  2.0981e-03  9.8732e-04  0:03:34 1866
  2554  1.0688e-02  2.7346e-03  1.8118e-03  1.0590e-02  2.0970e-03  9.7675e-04  0:02:51 1865
  2555  1.0607e-02  2.7126e-03  1.7745e-03  1.0511e-02  2.0955e-03  9.6641e-04  0:02:17 1864
  2556  1.0508e-02  2.6941e-03  1.7375e-03  1.0415e-02  2.0931e-03  9.5643e-04  0:01:49 1863
  2557  1.0395e-02  2.6792e-03  1.7011e-03  1.0306e-02  2.0904e-03  9.4584e-04  0:01:27 1862
  2558  1.0267e-02  2.6665e-03  1.6686e-03  1.0182e-02  2.0871e-03  9.3444e-04  0:01:10 1861
  2559  1.0122e-02  2.6560e-03  1.6420e-03  1.0041e-02  2.0836e-03  9.2275e-04  0:00:56 1860
  2560  9.9623e-03  2.6472e-03  1.6204e-03  9.8866e-03  2.0791e-03  9.1180e-04  0:06:57 1859
  2561  9.7897e-03  2.6395e-03  1.6032e-03  9.7190e-03  2.0741e-03  9.0116e-04  0:05:33 1858

  iter  continuity  x-velocity  y-velocity      energy           k       omega     time/iter
  2562  9.6075e-03  2.6337e-03  1.5920e-03  9.5418e-03  2.0683e-03  8.8991e-04  0:04:26 1857
  2563  9.4157e-03  2.6294e-03  1.5862e-03  9.3549e-03  2.0614e-03  8.8010e-04  0:03:33 1856
  2564  9.2230e-03  2.6250e-03  1.5850e-03  9.1669e-03  2.0530e-03  8.7131e-04  0:02:50 1855
  2565  9.0333e-03  2.6207e-03  1.5893e-03  8.9817e-03  2.0437e-03  8.6230e-04  0:02:16 1854
  2566  8.8422e-03  2.6154e-03  1.5992e-03  8.7944e-03  2.0340e-03  8.5367e-04  0:01:49 1853
  2567  8.6410e-03  2.6092e-03  1.6143e-03  8.5965e-03  2.0232e-03  8.4488e-04  0:01:27 1852
  2568  8.4450e-03  2.6029e-03  1.6329e-03  8.4031e-03  2.0117e-03  8.3645e-04  0:01:10 1851
  2569  8.2572e-03  2.5956e-03  1.6541e-03  8.2172e-03  1.9994e-03  8.2772e-04  0:00:56 1850
  2570  8.0848e-03  2.5889e-03  1.6773e-03  8.0457e-03  1.9863e-03  8.1863e-04  0:00:44 1849
  2571  7.9241e-03  2.5797e-03  1.7027e-03  7.8850e-03  1.9733e-03  8.1041e-04  0:06:45 1848
  2572  7.7796e-03  2.5692e-03  1.7296e-03  7.7394e-03  1.9607e-03  8.0334e-04  0:05:24 1847

  iter  continuity  x-velocity  y-velocity      energy           k       omega     time/iter
  2573  7.6592e-03  2.5588e-03  1.7578e-03  7.6169e-03  1.9493e-03  7.9654e-04  0:04:19 1846
  2574  7.5657e-03  2.5472e-03  1.7852e-03  7.5205e-03  1.9401e-03  7.9053e-04  0:03:27 1845
  2575  7.4995e-03  2.5339e-03  1.8113e-03  7.4506e-03  1.9320e-03  7.8546e-04  0:02:46 1844
  2576  7.4570e-03  2.5189e-03  1.8360e-03  7.4039e-03  1.9245e-03  7.8067e-04  0:02:12 1843
  2577  7.4424e-03  2.5039e-03  1.8569e-03  7.3845e-03  1.9172e-03  7.7483e-04  0:01:46 1842
  2578  7.4576e-03  2.4888e-03  1.8768e-03  7.3948e-03  1.9099e-03  7.6967e-04  0:01:25 1841
  2579  7.4977e-03  2.4698e-03  1.8962e-03  7.4299e-03  1.9032e-03  7.6516e-04  0:01:08 1840
  2580  7.5610e-03  2.4491e-03  1.9131e-03  7.4885e-03  1.8977e-03  7.6090e-04  0:00:54 1839
  2581  7.6419e-03  2.4279e-03  1.9269e-03  7.5650e-03  1.8933e-03  7.5759e-04  0:06:51 1838
  2582  7.7382e-03  2.4060e-03  1.9367e-03  7.6573e-03  1.8890e-03  7.5443e-04  0:05:29 1837
  2583  7.8457e-03  2.3843e-03  1.9417e-03  7.7612e-03  1.8848e-03  7.5119e-04  0:04:23 1836

  iter  continuity  x-velocity  y-velocity      energy           k       omega     time/iter
  2584  7.9595e-03  2.3610e-03  1.9436e-03  7.8719e-03  1.8807e-03  7.4780e-04  0:03:30 1835
  2585  8.0751e-03  2.3359e-03  1.9405e-03  7.9850e-03  1.8772e-03  7.4443e-04  0:02:48 1834
  2586  8.1903e-03  2.3098e-03  1.9369e-03  8.0980e-03  1.8753e-03  7.3909e-04  0:02:14 1833
  2587  8.3016e-03  2.2832e-03  1.9311e-03  8.2078e-03  1.8741e-03  7.3554e-04  0:01:47 1832
  2588  8.4065e-03  2.2560e-03  1.9217e-03  8.3115e-03  1.8727e-03  7.3238e-04  0:01:26 1831
  2589  8.5053e-03  2.2294e-03  1.9086e-03  8.4096e-03  1.8719e-03  7.2836e-04  0:01:09 1830
  2590  8.5961e-03  2.2024e-03  1.8922e-03  8.5000e-03  1.8720e-03  7.2535e-04  0:00:55 1829
  2591  8.6790e-03  2.1759e-03  1.8702e-03  8.5830e-03  1.8730e-03  7.2140e-04  0:06:49 1828
  2592  8.7538e-03  2.1505e-03  1.8448e-03  8.6583e-03  1.8741e-03  7.1840e-04  0:05:27 1827
  2593  8.8181e-03  2.1239e-03  1.8155e-03  8.7234e-03  1.8756e-03  7.1526e-04  0:04:22 1826
  2594  8.8736e-03  2.0961e-03  1.7861e-03  8.7801e-03  1.8772e-03  7.1211e-04  0:03:29 1825

  iter  continuity  x-velocity  y-velocity      energy           k       omega     time/iter
  2595  8.9221e-03  2.0683e-03  1.7570e-03  8.8298e-03  1.8791e-03  7.0901e-04  0:02:47 1824
  2596  8.9624e-03  2.0409e-03  1.7266e-03  8.8715e-03  1.8813e-03  7.0590e-04  0:02:14 1823
  2597  8.9948e-03  2.0145e-03  1.6944e-03  8.9055e-03  1.8838e-03  7.0265e-04  0:01:47 1822
  2598  9.0208e-03  1.9891e-03  1.6606e-03  8.9332e-03  1.8860e-03  6.9781e-04  0:01:26 1821
  2599  9.0415e-03  1.9637e-03  1.6257e-03  8.9557e-03  1.8882e-03  6.9405e-04  0:01:08 1820
  2600  9.0569e-03  1.9389e-03  1.5916e-03  8.9731e-03  1.8903e-03  6.8979e-04  0:06:58 1819
  2601  9.0655e-03  1.9142e-03  1.5590e-03  8.9836e-03  1.8923e-03  6.8506e-04  0:05:35 1818
  2602  9.0677e-03  1.8897e-03  1.5274e-03  8.9877e-03  1.8938e-03  6.7980e-04  0:04:28 1817
  2603  9.0624e-03  1.8650e-03  1.4955e-03  8.9843e-03  1.8951e-03  6.7478e-04  0:03:34 1816
  2604  9.0465e-03  1.8401e-03  1.4666e-03  8.9700e-03  1.8965e-03  6.6990e-04  0:02:51 1815
  2605  9.0191e-03  1.8151e-03  1.4404e-03  8.9442e-03  1.8979e-03  6.6419e-04  0:02:17 1814

  iter  continuity  x-velocity  y-velocity      energy           k       omega     time/iter
  2606  8.9807e-03  1.7910e-03  1.4163e-03  8.9072e-03  1.8990e-03  6.5829e-04  0:01:49 1813
  2607  8.9307e-03  1.7675e-03  1.3938e-03  8.8587e-03  1.8994e-03  6.5306e-04  0:01:27 1812
  2608  8.8696e-03  1.7443e-03  1.3738e-03  8.7990e-03  1.8995e-03  6.4812e-04  0:01:10 1811
  2609  8.7982e-03  1.7210e-03  1.3562e-03  8.7292e-03  1.8990e-03  6.4131e-04  0:00:56 1810
  2610  8.7166e-03  1.6980e-03  1.3411e-03  8.6491e-03  1.8986e-03  6.3567e-04  0:06:46 1809
  2611  8.6224e-03  1.6755e-03  1.3285e-03  8.5567e-03  1.8971e-03  6.3041e-04  0:05:25 1808
  2612  8.5139e-03  1.6529e-03  1.3180e-03  8.4499e-03  1.8953e-03  6.2481e-04  0:04:20 1807
  2613  8.3914e-03  1.6308e-03  1.3097e-03  8.3294e-03  1.8925e-03  6.1906e-04  0:03:28 1806
  2614  8.2529e-03  1.6096e-03  1.3035e-03  8.1928e-03  1.8891e-03  6.1349e-04  0:02:46 1805
  2615  8.0964e-03  1.5893e-03  1.2997e-03  8.0384e-03  1.8848e-03  6.0800e-04  0:02:13 1804
  2616  7.9218e-03  1.5701e-03  1.2973e-03  7.8660e-03  1.8797e-03  6.0351e-04  0:01:46 1803

  iter  continuity  x-velocity  y-velocity      energy           k       omega     time/iter
  2617  7.7317e-03  1.5511e-03  1.2962e-03  7.6781e-03  1.8737e-03  5.9844e-04  0:01:25 1802
  2618  7.5257e-03  1.5334e-03  1.2966e-03  7.4742e-03  1.8667e-03  5.9321e-04  0:01:08 1801
  2619  7.3009e-03  1.5170e-03  1.2982e-03  7.2516e-03  1.8588e-03  5.8828e-04  0:00:54 1800
  2620  7.0565e-03  1.5024e-03  1.3005e-03  7.0093e-03  1.8500e-03  5.8396e-04  0:00:43 1799
  2621  6.7894e-03  1.4899e-03  1.3038e-03  6.7443e-03  1.8408e-03  5.7829e-04  0:06:34 1798
  2622  6.5005e-03  1.4788e-03  1.3068e-03  6.4573e-03  1.8306e-03  5.7409e-04  0:05:15 1797
  2623  6.1985e-03  1.4690e-03  1.3100e-03  6.1570e-03  1.8199e-03  5.7021e-04  0:04:12 1796
  2624  5.8904e-03  1.4609e-03  1.3125e-03  5.8504e-03  1.8084e-03  5.6621e-04  0:03:22 1795
  2625  5.5790e-03  1.4526e-03  1.3136e-03  5.5403e-03  1.7971e-03  5.6204e-04  0:02:41 1794
  2626  5.2680e-03  1.4438e-03  1.3138e-03  5.2303e-03  1.7851e-03  5.5791e-04  0:02:09 1793
  2627  4.9633e-03  1.4369e-03  1.3119e-03  4.9264e-03  1.7729e-03  5.5422e-04  0:01:43 1792

  iter  continuity  x-velocity  y-velocity      energy           k       omega     time/iter
  2628  4.6726e-03  1.4290e-03  1.3084e-03  4.6361e-03  1.7603e-03  5.5128e-04  0:01:22 1791
  2629  4.4019e-03  1.4227e-03  1.3031e-03  4.3655e-03  1.7477e-03  5.4833e-04  0:01:06 1790
  2630  4.1596e-03  1.4193e-03  1.2956e-03  4.1229e-03  1.7354e-03  5.4550e-04  0:00:53 1789
  2631  3.9520e-03  1.4156e-03  1.2858e-03  3.9147e-03  1.7232e-03  5.4293e-04  0:00:42 1788
  2632  3.7842e-03  1.4097e-03  1.2738e-03  3.7461e-03  1.7106e-03  5.3959e-04  0:06:31 1787
  2633  3.6670e-03  1.4051e-03  1.2599e-03  3.6279e-03  1.6976e-03  5.3710e-04  0:05:13 1786
  2634  3.6044e-03  1.4014e-03  1.2440e-03  3.5642e-03  1.6846e-03  5.3482e-04  0:04:10 1785
  2635  3.5908e-03  1.3993e-03  1.2259e-03  3.5496e-03  1.6714e-03  5.3216e-04  0:03:20 1784
  2636  3.6233e-03  1.3988e-03  1.2061e-03  3.5812e-03  1.6578e-03  5.2926e-04  0:02:40 1783
  2637  3.6928e-03  1.3961e-03  1.1846e-03  3.6498e-03  1.6442e-03  5.2712e-04  0:02:08 1782
  2638  3.7870e-03  1.3932e-03  1.1611e-03  3.7432e-03  1.6303e-03  5.2475e-04  0:01:42 1781

  iter  continuity  x-velocity  y-velocity      energy           k       omega     time/iter
  2639  3.9048e-03  1.3891e-03  1.1365e-03  3.8601e-03  1.6165e-03  5.2280e-04  0:01:22 1780
  2640  4.0410e-03  1.3871e-03  1.1108e-03  3.9955e-03  1.6027e-03  5.2066e-04  0:01:05 1779
  2641  4.1837e-03  1.3838e-03  1.0846e-03  4.1374e-03  1.5889e-03  5.1809e-04  0:00:52 1778
  2642  4.3234e-03  1.3817e-03  1.0602e-03  4.2764e-03  1.5756e-03  5.1653e-04  0:06:37 1777
  2643  4.4553e-03  1.3806e-03  1.0356e-03  4.4075e-03  1.5623e-03  5.1475e-04  0:05:18 1776
  2644  4.5758e-03  1.3807e-03  1.0100e-03  4.5273e-03  1.5490e-03  5.1284e-04  0:04:14 1775
  2645  4.6811e-03  1.3789e-03  9.8270e-04  4.6319e-03  1.5360e-03  5.1087e-04  0:03:23 1774
  2646  4.7684e-03  1.3775e-03  9.5498e-04  4.7185e-03  1.5231e-03  5.0891e-04  0:02:42 1773
  2647  4.8357e-03  1.3774e-03  9.2810e-04  4.7853e-03  1.5107e-03  5.0721e-04  0:02:10 1772
  2648  4.8817e-03  1.3783e-03  9.0235e-04  4.8307e-03  1.4987e-03  5.0582e-04  0:01:44 1771
  2649  4.9060e-03  1.3770e-03  8.7800e-04  4.8545e-03  1.4865e-03  5.0413e-04  0:01:23 1770

  iter  continuity  x-velocity  y-velocity      energy           k       omega     time/iter
  2650  4.9089e-03  1.3740e-03  8.5579e-04  4.8571e-03  1.4746e-03  5.0382e-04  0:07:00 1769
  2651  4.8906e-03  1.3705e-03  8.3546e-04  4.8386e-03  1.4635e-03  5.0302e-04  0:05:36 1768
  2652  4.8522e-03  1.3679e-03  8.1502e-04  4.8000e-03  1.4527e-03  5.0192e-04  0:04:29 1767
  2653  4.7938e-03  1.3674e-03  7.9563e-04  4.7416e-03  1.4424e-03  5.0084e-04  0:03:35 1766
  2654  4.7164e-03  1.3672e-03  7.7858e-04  4.6643e-03  1.4321e-03  4.9958e-04  0:02:52 1765
  2655  4.6229e-03  1.3679e-03  7.6530e-04  4.5709e-03  1.4216e-03  4.9845e-04  0:02:17 1764
  2656  4.5138e-03  1.3675e-03  7.5167e-04  4.4621e-03  1.4114e-03  4.9740e-04  0:01:50 1763
  2657  4.3903e-03  1.3653e-03  7.3893e-04  4.3388e-03  1.4011e-03  4.9602e-04  0:01:28 1762
  2658  4.2561e-03  1.3613e-03  7.2775e-04  4.2049e-03  1.3907e-03  4.9423e-04  0:01:10 1761
  2659  4.1144e-03  1.3575e-03  7.1687e-04  4.0636e-03  1.3800e-03  4.9284e-04  0:00:56 1760
  2660  3.9683e-03  1.3542e-03  7.0696e-04  3.9179e-03  1.3697e-03  4.9155e-04  0:06:37 1759

  iter  continuity  x-velocity  y-velocity      energy           k       omega     time/iter
  2661  3.8208e-03  1.3511e-03  6.9856e-04  3.7709e-03  1.3593e-03  4.9000e-04  0:05:17 1758
  2662  3.6750e-03  1.3501e-03  6.9157e-04  3.6256e-03  1.3495e-03  4.8872e-04  0:04:14 1757
  2663  3.5332e-03  1.3463e-03  6.8577e-04  3.4842e-03  1.3401e-03  4.8727e-04  0:03:23 1756
  2664  3.3980e-03  1.3427e-03  6.8238e-04  3.3495e-03  1.3312e-03  4.8573e-04  0:02:42 1755
  2665  3.2724e-03  1.3383e-03  6.7900e-04  3.2244e-03  1.3231e-03  4.8461e-04  0:02:10 1754
  2666  3.1577e-03  1.3326e-03  6.7539e-04  3.1102e-03  1.3158e-03  4.8331e-04  0:01:44 1753
  2667  3.0560e-03  1.3261e-03  6.7193e-04  3.0090e-03  1.3093e-03  4.8230e-04  0:01:23 1752
  2668  2.9686e-03  1.3189e-03  6.6892e-04  2.9220e-03  1.3035e-03  4.8139e-04  0:01:06 1751
  2669  2.8954e-03  1.3111e-03  6.6621e-04  2.8493e-03  1.2980e-03  4.8067e-04  0:00:53 1750
  2670  2.8360e-03  1.3034e-03  6.6333e-04  2.7905e-03  1.2926e-03  4.7975e-04  0:06:32 1749
  2671  2.7909e-03  1.2963e-03  6.6032e-04  2.7459e-03  1.2872e-03  4.7920e-04  0:05:14 1748

  iter  continuity  x-velocity  y-velocity      energy           k       omega     time/iter
  2672  2.7590e-03  1.2892e-03  6.5717e-04  2.7146e-03  1.2821e-03  4.7896e-04  0:04:11 1747
  2673  2.7393e-03  1.2835e-03  6.5381e-04  2.6955e-03  1.2773e-03  4.7895e-04  0:03:20 1746
  2674  2.7304e-03  1.2773e-03  6.5080e-04  2.6872e-03  1.2730e-03  4.7901e-04  0:02:40 1745
  2675  2.7304e-03  1.2696e-03  6.4730e-04  2.6878e-03  1.2690e-03  4.7901e-04  0:02:08 1744
  2676  2.7388e-03  1.2615e-03  6.4353e-04  2.6967e-03  1.2659e-03  4.7941e-04  0:01:42 1743
  2677  2.7538e-03  1.2541e-03  6.3966e-04  2.7122e-03  1.2634e-03  4.7989e-04  0:01:22 1742
  2678  2.7736e-03  1.2452e-03  6.3544e-04  2.7325e-03  1.2616e-03  4.8016e-04  0:01:05 1741
  2679  2.7971e-03  1.2337e-03  6.3066e-04  2.7565e-03  1.2601e-03  4.8081e-04  0:00:52 1740
  2680  2.8235e-03  1.2216e-03  6.2564e-04  2.7833e-03  1.2593e-03  4.8180e-04  0:06:30 1739
  2681  2.8517e-03  1.2103e-03  6.2063e-04  2.8118e-03  1.2594e-03  4.8277e-04  0:05:12 1738
  2682  2.8810e-03  1.2007e-03  6.1582e-04  2.8414e-03  1.2598e-03  4.8374e-04  0:04:09 1737

  iter  continuity  x-velocity  y-velocity      energy           k       omega     time/iter
  2683  2.9110e-03  1.1898e-03  6.0993e-04  2.8717e-03  1.2608e-03  4.8469e-04  0:03:19 1736
  2684  2.9417e-03  1.1806e-03  6.0360e-04  2.9026e-03  1.2621e-03  4.8558e-04  0:02:39 1735
  2685  2.9727e-03  1.1722e-03  5.9711e-04  2.9338e-03  1.2637e-03  4.8623e-04  0:02:07 1734
  2686  3.0036e-03  1.1605e-03  5.9026e-04  2.9649e-03  1.2659e-03  4.8639e-04  0:01:42 1733
  2687  3.0350e-03  1.1482e-03  5.8299e-04  2.9964e-03  1.2681e-03  4.8707e-04  0:01:21 1732
  2688  3.0667e-03  1.1378e-03  5.7536e-04  3.0282e-03  1.2703e-03  4.8746e-04  0:01:05 1731
  2689  3.0984e-03  1.1289e-03  5.6767e-04  3.0599e-03  1.2727e-03  4.8721e-04  0:00:52 1730
  2690  3.1300e-03  1.1178e-03  5.5960e-04  3.0915e-03  1.2750e-03  4.8683e-04  0:06:27 1729
  2691  3.1625e-03  1.1087e-03  5.5154e-04  3.1240e-03  1.2769e-03  4.8590e-04  0:05:10 1728
  2692  3.1957e-03  1.0979e-03  5.4324e-04  3.1572e-03  1.2786e-03  4.8530e-04  0:04:08 1727
  2693  3.2294e-03  1.0844e-03  5.3465e-04  3.1908e-03  1.2806e-03  4.8472e-04  0:03:18 1726

  iter  continuity  x-velocity  y-velocity      energy           k       omega     time/iter
  2694  3.2638e-03  1.0722e-03  5.2599e-04  3.2251e-03  1.2827e-03  4.8360e-04  0:02:38 1725
  2695  3.2992e-03  1.0605e-03  5.1759e-04  3.2604e-03  1.2847e-03  4.8202e-04  0:02:07 1724
  2696  3.3357e-03  1.0505e-03  5.0914e-04  3.2966e-03  1.2864e-03  4.7975e-04  0:01:41 1723
  2697  3.3731e-03  1.0415e-03  5.0057e-04  3.3339e-03  1.2879e-03  4.7730e-04  0:01:21 1722
  2698  3.4115e-03  1.0324e-03  4.9222e-04  3.3721e-03  1.2890e-03  4.7536e-04  0:01:05 1721
  2699  3.4504e-03  1.0219e-03  4.8391e-04  3.4108e-03  1.2898e-03  4.7284e-04  0:00:52 1720
  2700  3.4901e-03  1.0118e-03  4.7531e-04  3.4503e-03  1.2904e-03  4.7013e-04  0:06:25 1719
  2701  3.5309e-03  1.0027e-03  4.6730e-04  3.4909e-03  1.2908e-03  4.6708e-04  0:05:08 1718
  2702  3.5725e-03  9.9426e-04  4.5989e-04  3.5323e-03  1.2906e-03  4.6383e-04  0:04:06 1717
  2703  3.6146e-03  9.8583e-04  4.5277e-04  3.5742e-03  1.2902e-03  4.6052e-04  0:03:17 1716
  2704  3.6566e-03  9.7693e-04  4.4565e-04  3.6159e-03  1.2893e-03  4.5713e-04  0:02:37 1715

  iter  continuity  x-velocity  y-velocity      energy           k       omega     time/iter
  2705  3.6977e-03  9.6754e-04  4.3873e-04  3.6569e-03  1.2881e-03  4.5356e-04  0:02:06 1714
  2706  3.7376e-03  9.5860e-04  4.3194e-04  3.6966e-03  1.2865e-03  4.4961e-04  0:01:41 1713
  2707  3.7753e-03  9.4988e-04  4.2541e-04  3.7341e-03  1.2845e-03  4.4512e-04  0:01:20 1712
  2708  3.8098e-03  9.4121e-04  4.1906e-04  3.7684e-03  1.2821e-03  4.4052e-04  0:01:04 1711
  2709  3.8403e-03  9.3322e-04  4.1325e-04  3.7988e-03  1.2791e-03  4.3600e-04  0:00:51 1710
  2710  3.8658e-03  9.2511e-04  4.0787e-04  3.8243e-03  1.2761e-03  4.3112e-04  0:06:23 1709
  2711  3.8854e-03  9.1780e-04  4.0283e-04  3.8438e-03  1.2728e-03  4.2624e-04  0:05:06 1708
  2712  3.8982e-03  9.1045e-04  3.9842e-04  3.8565e-03  1.2692e-03  4.2117e-04  0:04:05 1707
  2713  3.9034e-03  9.0176e-04  3.9447e-04  3.8617e-03  1.2653e-03  4.1583e-04  0:03:16 1706
  2714  3.9004e-03  8.9380e-04  3.9091e-04  3.8587e-03  1.2614e-03  4.1050e-04  0:02:36 1705
  2715  3.8887e-03  8.8619e-04  3.8793e-04  3.8469e-03  1.2571e-03  4.0519e-04  0:02:05 1704

  iter  continuity  x-velocity  y-velocity      energy           k       omega     time/iter
  2716  3.8677e-03  8.7946e-04  3.8555e-04  3.8260e-03  1.2526e-03  3.9979e-04  0:01:40 1703
  2717  3.8373e-03  8.7252e-04  3.8398e-04  3.7956e-03  1.2478e-03  3.9431e-04  0:01:20 1702
  2718  3.7974e-03  8.6681e-04  3.8324e-04  3.7558e-03  1.2426e-03  3.8852e-04  0:01:04 1701
  2719  3.7478e-03  8.6223e-04  3.8329e-04  3.7061e-03  1.2371e-03  3.8301e-04  0:00:51 1700
  2720  3.6887e-03  8.5802e-04  3.8402e-04  3.6471e-03  1.2313e-03  3.7777e-04  0:00:41 1699
  2721  3.6214e-03  8.5425e-04  3.8504e-04  3.5797e-03  1.2254e-03  3.7265e-04  0:06:12 1698
  2722  3.5460e-03  8.5178e-04  3.8664e-04  3.5042e-03  1.2194e-03  3.6778e-04  0:04:58 1697
  2723  3.4643e-03  8.5069e-04  3.8876e-04  3.4225e-03  1.2135e-03  3.6300e-04  0:03:58 1696
  2724  3.3772e-03  8.4991e-04  3.9099e-04  3.3353e-03  1.2076e-03  3.5845e-04  0:03:10 1695
  2725  3.2862e-03  8.5012e-04  3.9349e-04  3.2442e-03  1.2019e-03  3.5415e-04  0:02:32 1694
  2726  3.1928e-03  8.5157e-04  3.9617e-04  3.1507e-03  1.1965e-03  3.5018e-04  0:02:02 1693

  iter  continuity  x-velocity  y-velocity      energy           k       omega     time/iter
  2727  3.0988e-03  8.5366e-04  3.9900e-04  3.0565e-03  1.1913e-03  3.4654e-04  0:01:37 1692
  2728  3.0060e-03  8.5743e-04  4.0190e-04  2.9635e-03  1.1861e-03  3.4314e-04  0:01:18 1691
  2729  2.9162e-03  8.6340e-04  4.0458e-04  2.8734e-03  1.1810e-03  3.3987e-04  0:01:02 1690
  2730  2.8313e-03  8.6885e-04  4.0732e-04  2.7882e-03  1.1763e-03  3.3685e-04  0:00:50 1689
  2731  2.7527e-03  8.7538e-04  4.0966e-04  2.7094e-03  1.1717e-03  3.3423e-04  0:06:17 1688
  2732  2.6823e-03  8.8219e-04  4.1195e-04  2.6388e-03  1.1672e-03  3.3197e-04  0:05:02 1687
  2733  2.6215e-03  8.8955e-04  4.1348e-04  2.5779e-03  1.1626e-03  3.3000e-04  0:04:01 1686
  2734  2.5710e-03  8.9581e-04  4.1459e-04  2.5273e-03  1.1580e-03  3.2841e-04  0:03:13 1685
  2735  2.5314e-03  8.9843e-04  4.1589e-04  2.4877e-03  1.1533e-03  3.2719e-04  0:02:34 1684
  2736  2.5030e-03  9.0094e-04  4.1699e-04  2.4593e-03  1.1485e-03  3.2644e-04  0:02:03 1683
  2737  2.4857e-03  9.0396e-04  4.1766e-04  2.4421e-03  1.1433e-03  3.2612e-04  0:01:39 1682

  iter  continuity  x-velocity  y-velocity      energy           k       omega     time/iter
  2738  2.4781e-03  9.0441e-04  4.1768e-04  2.4346e-03  1.1377e-03  3.2616e-04  0:01:19 1681
  2739  2.4795e-03  9.0915e-04  4.1768e-04  2.4361e-03  1.1318e-03  3.2644e-04  0:01:03 1680
  2740  2.4889e-03  9.2173e-04  4.1780e-04  2.4454e-03  1.1258e-03  3.2688e-04  0:00:50 1679
  2741  2.5046e-03  9.4174e-04  4.1829e-04  2.4611e-03  1.1193e-03  3.2754e-04  0:06:16 1678
  2742  2.5241e-03  9.6238e-04  4.1821e-04  2.4806e-03  1.1123e-03  3.2816e-04  0:05:01 1677
  2743  2.5438e-03  9.6308e-04  4.1753e-04  2.5004e-03  1.1049e-03  3.2875e-04  0:04:00 1676
  2744  2.5648e-03  9.5553e-04  4.1639e-04  2.5214e-03  1.0971e-03  3.3005e-04  0:03:12 1675
  2745  2.5862e-03  9.5747e-04  4.1541e-04  2.5428e-03  1.0888e-03  3.3167e-04  0:02:34 1674
  2746  2.6065e-03  9.6134e-04  4.1465e-04  2.5629e-03  1.0802e-03  3.3348e-04  0:02:03 1673
  2747  2.6246e-03  9.6606e-04  4.1409e-04  2.5807e-03  1.0713e-03  3.3580e-04  0:01:38 1672
  2748  2.6393e-03  9.6991e-04  4.1372e-04  2.5950e-03  1.0621e-03  3.3766e-04  0:01:18 1671

  iter  continuity  x-velocity  y-velocity      energy           k       omega     time/iter
  2749  2.6502e-03  9.7371e-04  4.1294e-04  2.6054e-03  1.0526e-03  3.3907e-04  0:01:03 1670
  2750  2.6582e-03  9.7933e-04  4.1155e-04  2.6128e-03  1.0427e-03  3.4123e-04  0:00:50 1669
  2751  2.6623e-03  9.7961e-04  4.1019e-04  2.6160e-03  1.0326e-03  3.4332e-04  0:06:14 1668
  2752  2.6633e-03  9.8475e-04  4.0935e-04  2.6162e-03  1.0220e-03  3.4521e-04  0:04:59 1667
  2753  2.6618e-03  9.9453e-04  4.0900e-04  2.6137e-03  1.0112e-03  3.4712e-04  0:03:59 1666
  2754  2.6584e-03  1.0031e-03  4.0837e-04  2.6093e-03  1.0001e-03  3.4855e-04  0:03:11 1665
  2755  2.6538e-03  1.0130e-03  4.0719e-04  2.6037e-03  9.8864e-04  3.4984e-04  0:02:33 1664
  2756  2.6479e-03  1.0192e-03  4.0618e-04  2.5967e-03  9.7700e-04  3.5239e-04  0:02:02 1663
  2757  2.6418e-03  1.0256e-03  4.0563e-04  2.5895e-03  9.6515e-04  3.5472e-04  0:01:38 1662
  2758  2.6367e-03  1.0331e-03  4.0554e-04  2.5833e-03  9.5327e-04  3.5651e-04  0:01:18 1661
  2759  2.6331e-03  1.0382e-03  4.0529e-04  2.5784e-03  9.4154e-04  3.5868e-04  0:01:02 1660

  iter  continuity  x-velocity  y-velocity      energy           k       omega     time/iter
  2760  2.6321e-03  1.0448e-03  4.0493e-04  2.5763e-03  9.2974e-04  3.6069e-04  0:06:22 1659
  2761  2.6343e-03  1.0468e-03  4.0457e-04  2.5772e-03  9.1801e-04  3.6255e-04  0:05:05 1658
  2762  2.6404e-03  1.0522e-03  4.0391e-04  2.5820e-03  9.0623e-04  3.6429e-04  0:04:04 1657
  2763  2.6502e-03  1.0602e-03  4.0346e-04  2.5907e-03  8.9444e-04  3.6599e-04  0:03:15 1656
  2764  2.6646e-03  1.0688e-03  4.0254e-04  2.6041e-03  8.8253e-04  3.6744e-04  0:02:36 1655
  2765  2.6838e-03  1.0749e-03  4.0174e-04  2.6222e-03  8.7046e-04  3.6890e-04  0:02:05 1654
  2766  2.7078e-03  1.0833e-03  4.0032e-04  2.6451e-03  8.5823e-04  3.7029e-04  0:01:40 1653
  2767  2.7370e-03  1.0960e-03  3.9989e-04  2.6733e-03  8.4602e-04  3.7183e-04  0:01:20 1652
  2768  2.7708e-03  1.1132e-03  3.9967e-04  2.7061e-03  8.3377e-04  3.7323e-04  0:01:04 1651
  2769  2.8060e-03  1.1181e-03  3.9895e-04  2.7408e-03  8.2159e-04  3.7442e-04  0:00:51 1650
  2770  2.8461e-03  1.1246e-03  3.9844e-04  2.7801e-03  8.0949e-04  3.7559e-04  0:06:11 1649

  iter  continuity  x-velocity  y-velocity      energy           k       omega     time/iter
  2771  2.8903e-03  1.1408e-03  3.9802e-04  2.8236e-03  7.9762e-04  3.7698e-04  0:04:56 1648
  2772  2.9370e-03  1.1535e-03  3.9760e-04  2.8695e-03  7.8618e-04  3.7791e-04  0:03:57 1647
  2773  2.9881e-03  1.1750e-03  4.0017e-04  2.9196e-03  7.7555e-04  3.7840e-04  0:03:09 1646
  2774  3.0384e-03  1.1836e-03  4.0115e-04  2.9689e-03  7.6604e-04  3.7842e-04  0:02:31 1645
  2775  3.0895e-03  1.1846e-03  4.0026e-04  3.0191e-03  7.5765e-04  3.7912e-04  0:02:01 1644
  2776  3.1421e-03  1.1974e-03  4.0067e-04  3.0703e-03  7.5025e-04  3.8032e-04  0:01:37 1643
  2777  3.1948e-03  1.2236e-03  4.0167e-04  3.1217e-03  7.4361e-04  3.8109e-04  0:01:17 1642
  2778  3.2428e-03  1.2205e-03  4.0235e-04  3.1688e-03  7.3759e-04  3.8191e-04  0:01:02 1641
  2779  3.2828e-03  1.1550e-03  3.9803e-04  3.2085e-03  7.3221e-04  3.8274e-04  0:06:17 1640
  2780  3.3260e-03  1.1353e-03  3.9477e-04  3.2513e-03  7.2732e-04  3.8334e-04  0:05:02 1639
  2781  3.3692e-03  1.1257e-03  3.9339e-04  3.2938e-03  7.2301e-04  3.8378e-04  0:04:01 1638

  iter  continuity  x-velocity  y-velocity      energy           k       omega     time/iter
  2782  3.4107e-03  1.1171e-03  3.9271e-04  3.3342e-03  7.1935e-04  3.8407e-04  0:03:13 1637
  2783  3.4500e-03  1.1121e-03  3.9285e-04  3.3721e-03  7.1628e-04  3.8402e-04  0:02:34 1636
  2784  3.4877e-03  1.1132e-03  3.9274e-04  3.4084e-03  7.1368e-04  3.8374e-04  0:02:03 1635
  2785  3.5229e-03  1.1190e-03  3.9243e-04  3.4422e-03  7.1152e-04  3.8400e-04  0:01:39 1634
  2786  3.5545e-03  1.1165e-03  3.9245e-04  3.4722e-03  7.0965e-04  3.8419e-04  0:01:19 1633
  2787  3.5830e-03  1.1115e-03  3.9279e-04  3.4992e-03  7.0809e-04  3.8438e-04  0:06:29 1632
  2788  3.6094e-03  1.1128e-03  3.9346e-04  3.5240e-03  7.0663e-04  3.8462e-04  0:05:11 1631
  2789  3.6331e-03  1.1143e-03  3.9511e-04  3.5462e-03  7.0532e-04  3.8462e-04  0:04:09 1630
  2790  3.6541e-03  1.1105e-03  3.9688e-04  3.5657e-03  7.0415e-04  3.8462e-04  0:03:19 1629
  2791  3.6731e-03  1.1090e-03  3.9871e-04  3.5832e-03  7.0303e-04  3.8443e-04  0:02:39 1628
  2792  3.6903e-03  1.1196e-03  4.0098e-04  3.5990e-03  7.0206e-04  3.8386e-04  0:02:07 1627

  iter  continuity  x-velocity  y-velocity      energy           k       omega     time/iter
  2793  3.7053e-03  1.1269e-03  4.0153e-04  3.6124e-03  7.0129e-04  3.8288e-04  0:01:42 1626
  2794  3.7182e-03  1.1309e-03  4.0054e-04  3.6238e-03  7.0071e-04  3.8216e-04  0:01:21 1625
  2795  3.7297e-03  1.1333e-03  4.0025e-04  3.6338e-03  7.0039e-04  3.8196e-04  0:01:05 1624
  2796  3.7398e-03  1.1414e-03  4.0223e-04  3.6426e-03  7.0047e-04  3.8151e-04  0:00:52 1623
  2797  3.7467e-03  1.1322e-03  4.0148e-04  3.6483e-03  7.0093e-04  3.8056e-04  0:06:06 1622
  2798  3.7545e-03  1.1240e-03  4.0106e-04  3.6549e-03  7.0183e-04  3.7935e-04  0:04:53 1621
  2799  3.7629e-03  1.1380e-03  4.0358e-04  3.6616e-03  7.0306e-04  3.7805e-04  0:03:54 1620
  2800  3.7700e-03  1.1262e-03  4.0511e-04  3.6674e-03  7.0461e-04  3.7659e-04  0:03:07 1619
  2801  3.7788e-03  1.1267e-03  4.0533e-04  3.6746e-03  7.0647e-04  3.7495e-04  0:02:30 1618
  2802  3.7873e-03  1.1358e-03  4.0821e-04  3.6817e-03  7.0845e-04  3.7348e-04  0:02:00 1617
  2803  3.7991e-03  1.1636e-03  4.1100e-04  3.6915e-03  7.1045e-04  3.7216e-04  0:01:36 1616

  iter  continuity  x-velocity  y-velocity      energy           k       omega     time/iter
  2804  3.8056e-03  1.1649e-03  4.1229e-04  3.6967e-03  7.1260e-04  3.7069e-04  0:01:16 1615
  2805  3.8046e-03  1.0873e-03  4.0780e-04  3.6955e-03  7.1469e-04  3.6909e-04  0:01:01 1614
  2806  3.8080e-03  1.0640e-03  4.0709e-04  3.6986e-03  7.1676e-04  3.6731e-04  0:00:49 1613
  2807  3.8129e-03  1.0515e-03  4.0734e-04  3.7031e-03  7.1885e-04  3.6526e-04  0:06:01 1612
  2808  3.8189e-03  1.0481e-03  4.0884e-04  3.7085e-03  7.2125e-04  3.6327e-04  0:04:49 1611
  2809  3.8255e-03  1.0412e-03  4.1121e-04  3.7145e-03  7.2371e-04  3.6154e-04  0:03:51 1610
  2810  3.8320e-03  1.0308e-03  4.1387e-04  3.7203e-03  7.2620e-04  3.5982e-04  0:03:05 1609
  2811  3.8392e-03  1.0287e-03  4.1383e-04  3.7272e-03  7.2882e-04  3.5817e-04  0:02:28 1608
  2812  3.8474e-03  1.0384e-03  4.1533e-04  3.7349e-03  7.3146e-04  3.5648e-04  0:01:58 1607
  2813  3.8556e-03  1.0499e-03  4.1679e-04  3.7428e-03  7.3416e-04  3.5476e-04  0:01:34 1606
  2814  3.8642e-03  1.0528e-03  4.1752e-04  3.7510e-03  7.3694e-04  3.5310e-04  0:01:15 1605

  iter  continuity  x-velocity  y-velocity      energy           k       omega     time/iter
  2815  3.8731e-03  1.0525e-03  4.1911e-04  3.7596e-03  7.3978e-04  3.5130e-04  0:01:00 1604
  2816  3.8813e-03  1.0430e-03  4.1961e-04  3.7675e-03  7.4254e-04  3.4986e-04  0:00:48 1603
  2817  3.8890e-03  1.0427e-03  4.2003e-04  3.7753e-03  7.4513e-04  3.4846e-04  0:00:39 1602
  2818  3.8960e-03  1.0296e-03  4.2111e-04  3.7825e-03  7.4759e-04  3.4707e-04  0:05:51 1601
  2819  3.9037e-03  1.0268e-03  4.2293e-04  3.7904e-03  7.4984e-04  3.4594e-04  0:04:41 1600
  2820  3.9125e-03  1.0277e-03  4.2565e-04  3.7993e-03  7.5193e-04  3.4501e-04  0:03:44 1599
  2821  3.9197e-03  1.0216e-03  4.2640e-04  3.8070e-03  7.5393e-04  3.4419e-04  0:02:59 1598
  2822  3.9274e-03  1.0239e-03  4.2691e-04  3.8151e-03  7.5572e-04  3.4347e-04  0:02:23 1597
  2823  3.9360e-03  1.0383e-03  4.2946e-04  3.8243e-03  7.5749e-04  3.4251e-04  0:01:55 1596
  2824  3.9431e-03  1.0512e-03  4.3010e-04  3.8320e-03  7.5916e-04  3.4203e-04  0:01:32 1595
  2825  3.9501e-03  1.0532e-03  4.3152e-04  3.8396e-03  7.6066e-04  3.4163e-04  0:01:13 1594

  iter  continuity  x-velocity  y-velocity      energy           k       omega     time/iter
  2826  3.9577e-03  1.0579e-03  4.3272e-04  3.8476e-03  7.6200e-04  3.4149e-04  0:00:59 1593
  2827  3.9675e-03  1.0854e-03  4.3920e-04  3.8575e-03  7.6304e-04  3.4135e-04  0:06:05 1592
  2828  3.9729e-03  1.0768e-03  4.4002e-04  3.8630e-03  7.6384e-04  3.4114e-04  0:04:52 1591
  2829  3.9820e-03  1.1096e-03  4.4218e-04  3.8720e-03  7.6436e-04  3.4077e-04  0:03:53 1590
  2830  3.9831e-03  1.1080e-03  4.4480e-04  3.8736e-03  7.6477e-04  3.3997e-04  0:03:07 1589
  2831  3.9783e-03  1.0379e-03  4.4516e-04  3.8698e-03  7.6476e-04  3.3928e-04  0:02:29 1588
  2832  3.9755e-03  1.0128e-03  4.4603e-04  3.8680e-03  7.6441e-04  3.3872e-04  0:01:59 1587
  2833  3.9722e-03  9.9448e-04  4.4621e-04  3.8654e-03  7.6392e-04  3.3818e-04  0:01:35 1586
  2834  3.9683e-03  9.8221e-04  4.4363e-04  3.8620e-03  7.6318e-04  3.3770e-04  0:01:16 1585
  2835  3.9636e-03  9.7732e-04  4.4059e-04  3.8577e-03  7.6230e-04  3.3735e-04  0:01:01 1584
  2836  3.9581e-03  9.7506e-04  4.3795e-04  3.8524e-03  7.6129e-04  3.3685e-04  0:00:49 1583

  iter  continuity  x-velocity  y-velocity      energy           k       omega     time/iter
  2837  3.9509e-03  9.7264e-04  4.3528e-04  3.8452e-03  7.6019e-04  3.3631e-04  0:05:55 1582
  2838  3.9424e-03  9.6990e-04  4.3279e-04  3.8368e-03  7.5898e-04  3.3574e-04  0:04:44 1581
  2839  3.9335e-03  9.8007e-04  4.3190e-04  3.8281e-03  7.5756e-04  3.3513e-04  0:03:47 1580
  2840  3.9231e-03  9.7826e-04  4.2957e-04  3.8178e-03  7.5607e-04  3.3442e-04  0:03:02 1579
  2841  3.9119e-03  9.7705e-04  4.2851e-04  3.8067e-03  7.5450e-04  3.3361e-04  0:02:25 1578
  2842  3.8993e-03  9.8481e-04  4.2712e-04  3.7944e-03  7.5298e-04  3.3249e-04  0:01:56 1577
  2843  3.8852e-03  9.8777e-04  4.2461e-04  3.7805e-03  7.5158e-04  3.3155e-04  0:01:33 1576
  2844  3.8703e-03  9.9492e-04  4.2231e-04  3.7657e-03  7.5012e-04  3.3043e-04  0:01:14 1575
  2845  3.8534e-03  9.9419e-04  4.2035e-04  3.7490e-03  7.4865e-04  3.2939e-04  0:00:59 1574
  2846  3.8364e-03  9.9437e-04  4.2122e-04  3.7320e-03  7.4709e-04  3.2841e-04  0:00:47 1573
  2847  3.8167e-03  1.0019e-03  4.2137e-04  3.7127e-03  7.4550e-04  3.2732e-04  0:05:52 1572

  iter  continuity  x-velocity  y-velocity      energy           k       omega     time/iter
  2848  3.7964e-03  9.9945e-04  4.2268e-04  3.6927e-03  7.4399e-04  3.2662e-04  0:04:42 1571
  2849  3.7750e-03  1.0077e-03  4.2423e-04  3.6715e-03  7.4252e-04  3.2588e-04  0:03:45 1570
  2850  3.7530e-03  1.0115e-03  4.2655e-04  3.6496e-03  7.4083e-04  3.2506e-04  0:03:00 1569
  2851  3.7317e-03  1.0370e-03  4.2568e-04  3.6283e-03  7.3900e-04  3.2414e-04  0:02:24 1568
  2852  3.7064e-03  1.0362e-03  4.2529e-04  3.6030e-03  7.3708e-04  3.2293e-04  0:01:55 1567
  2853  3.6798e-03  1.0242e-03  4.2364e-04  3.5764e-03  7.3514e-04  3.2183e-04  0:01:32 1566
  2854  3.6535e-03  1.0242e-03  4.2420e-04  3.5502e-03  7.3302e-04  3.2087e-04  0:01:14 1565
  2855  3.6291e-03  1.0420e-03  4.2334e-04  3.5255e-03  7.3069e-04  3.1977e-04  0:00:59 1564
  2856  3.5991e-03  1.0307e-03  4.2072e-04  3.4954e-03  7.2823e-04  3.1870e-04  0:00:47 1563
  2857  3.5740e-03  1.0452e-03  4.2103e-04  3.4699e-03  7.2569e-04  3.1748e-04  0:00:38 1562
  2858  3.5465e-03  1.0654e-03  4.1689e-04  3.4422e-03  7.2307e-04  3.1621e-04  0:05:42 1561

  iter  continuity  x-velocity  y-velocity      energy           k       omega     time/iter
  2859  3.5121e-03  1.0262e-03  4.0721e-04  3.4084e-03  7.2031e-04  3.1480e-04  0:04:34 1560
  2860  3.4793e-03  9.8935e-04  4.0145e-04  3.3764e-03  7.1753e-04  3.1340e-04  0:03:39 1559
  2861  3.4474e-03  9.7029e-04  3.9592e-04  3.3449e-03  7.1475e-04  3.1198e-04  0:02:55 1558
  2862  3.4167e-03  9.5782e-04  3.8883e-04  3.3145e-03  7.1190e-04  3.1044e-04  0:02:20 1557
  2863  3.3877e-03  9.6096e-04  3.8647e-04  3.2857e-03  7.0890e-04  3.0892e-04  0:01:52 1556
  2864  3.3587e-03  9.5900e-04  3.8353e-04  3.2568e-03  7.0575e-04  3.0757e-04  0:01:29 1555
  2865  3.3310e-03  9.5714e-04  3.8170e-04  3.2290e-03  7.0257e-04  3.0620e-04  0:01:11 1554
  2866  3.3030e-03  9.4439e-04  3.7933e-04  3.2010e-03  6.9940e-04  3.0493e-04  0:00:57 1553
  2867  3.2767e-03  9.3349e-04  3.7812e-04  3.1748e-03  6.9625e-04  3.0360e-04  0:00:46 1552
  2868  3.2519e-03  9.3785e-04  3.7709e-04  3.1502e-03  6.9315e-04  3.0222e-04  0:05:47 1551
  2869  3.2292e-03  9.5945e-04  3.7170e-04  3.1274e-03  6.9011e-04  3.0071e-04  0:04:37 1550

  iter  continuity  x-velocity  y-velocity      energy           k       omega     time/iter
  2870  3.2045e-03  9.6251e-04  3.7044e-04  3.1028e-03  6.8717e-04  2.9902e-04  0:03:42 1549
  2871  3.1787e-03  9.4997e-04  3.6984e-04  3.0772e-03  6.8430e-04  2.9739e-04  0:02:57 1548
  2872  3.1557e-03  9.3443e-04  3.7196e-04  3.0542e-03  6.8148e-04  2.9567e-04  0:02:22 1547
  2873  3.1325e-03  9.3454e-04  3.7210e-04  3.0315e-03  6.7876e-04  2.9422e-04  0:01:53 1546
  2874  3.1109e-03  9.3636e-04  3.7177e-04  3.0104e-03  6.7610e-04  2.9299e-04  0:01:31 1545
  2875  3.0895e-03  9.3127e-04  3.7079e-04  2.9893e-03  6.7354e-04  2.9189e-04  0:01:12 1544
  2876  3.0691e-03  9.2917e-04  3.6507e-04  2.9690e-03  6.7109e-04  2.9079e-04  0:00:58 1543
  2877  3.0511e-03  9.3904e-04  3.6360e-04  2.9512e-03  6.6882e-04  2.8961e-04  0:00:46 1542
  2878  3.0322e-03  9.3677e-04  3.6716e-04  2.9329e-03  6.6678e-04  2.8830e-04  0:00:37 1541
  2879  3.0160e-03  9.4569e-04  3.6884e-04  2.9172e-03  6.6485e-04  2.8668e-04  0:05:38 1540
  2880  3.0006e-03  9.5760e-04  3.6461e-04  2.9019e-03  6.6297e-04  2.8505e-04  0:04:30 1539

  iter  continuity  x-velocity  y-velocity      energy           k       omega     time/iter
  2881  2.9866e-03  9.8109e-04  3.6063e-04  2.8883e-03  6.6116e-04  2.8393e-04  0:03:36 1538
  2882  2.9723e-03  9.7252e-04  3.6059e-04  2.8745e-03  6.5942e-04  2.8247e-04  0:02:52 1537
  2883  2.9605e-03  9.7587e-04  3.6146e-04  2.8629e-03  6.5766e-04  2.8062e-04  0:02:18 1536
  2884  2.9491e-03  9.8437e-04  3.6089e-04  2.8513e-03  6.5592e-04  2.7858e-04  0:01:50 1535
  2885  2.9414e-03  9.9668e-04  3.6108e-04  2.8430e-03  6.5418e-04  2.7716e-04  0:01:28 1534
  2886  2.9220e-03  9.7650e-04  3.5986e-04  2.8244e-03  6.5253e-04  2.7594e-04  0:01:10 1533
  2887  2.9036e-03  9.3069e-04  3.5543e-04  2.8074e-03  6.5097e-04  2.7470e-04  0:00:56 1532
  2888  2.8885e-03  9.1342e-04  3.5338e-04  2.7933e-03  6.4956e-04  2.7354e-04  0:00:45 1531
  2889  2.8745e-03  9.0217e-04  3.5028e-04  2.7798e-03  6.4838e-04  2.7238e-04  0:05:42 1530
  2890  2.8597e-03  8.9095e-04  3.4897e-04  2.7653e-03  6.4739e-04  2.7108e-04  0:04:33 1529
  2891  2.8448e-03  8.8258e-04  3.4734e-04  2.7505e-03  6.4664e-04  2.6986e-04  0:03:39 1528

  iter  continuity  x-velocity  y-velocity      energy           k       omega     time/iter
  2892  2.8314e-03  8.8353e-04  3.4360e-04  2.7370e-03  6.4603e-04  2.6899e-04  0:02:55 1527
  2893  2.8177e-03  8.8569e-04  3.4395e-04  2.7234e-03  6.4554e-04  2.6818e-04  0:02:20 1526
  2894  2.8043e-03  8.8530e-04  3.4362e-04  2.7101e-03  6.4512e-04  2.6753e-04  0:01:52 1525
  2895  2.7916e-03  8.8543e-04  3.4356e-04  2.6976e-03  6.4476e-04  2.6679e-04  0:01:29 1524
  2896  2.7797e-03  8.9358e-04  3.4427e-04  2.6859e-03  6.4445e-04  2.6598e-04  0:01:11 1523
  2897  2.7674e-03  8.9504e-04  3.4228e-04  2.6733e-03  6.4421e-04  2.6490e-04  0:00:57 1522
  2898  2.7547e-03  8.9818e-04  3.3791e-04  2.6605e-03  6.4410e-04  2.6368e-04  0:00:46 1521
  2899  2.7439e-03  9.1153e-04  3.3661e-04  2.6496e-03  6.4414e-04  2.6295e-04  0:00:36 1520
  2900  2.7327e-03  9.2824e-04  3.3423e-04  2.6390e-03  6.4427e-04  2.6236e-04  0:05:33 1519
  2901  2.7210e-03  9.3076e-04  3.3719e-04  2.6279e-03  6.4448e-04  2.6193e-04  0:04:26 1518
  2902  2.7104e-03  9.4093e-04  3.3719e-04  2.6178e-03  6.4470e-04  2.6147e-04  0:03:33 1517

  iter  continuity  x-velocity  y-velocity      energy           k       omega     time/iter
  2903  2.6986e-03  9.5767e-04  3.3827e-04  2.6066e-03  6.4499e-04  2.6098e-04  0:02:50 1516
  2904  2.6878e-03  9.6028e-04  3.3880e-04  2.5964e-03  6.4535e-04  2.6051e-04  0:02:16 1515
  2905  2.6803e-03  9.7625e-04  3.4118e-04  2.5895e-03  6.4578e-04  2.6038e-04  0:01:49 1514
  2906  2.6731e-03  1.0018e-03  3.4537e-04  2.5821e-03  6.4625e-04  2.5935e-04  0:01:27 1513
  2907  2.6617e-03  9.8416e-04  3.4552e-04  2.5714e-03  6.4682e-04  2.5806e-04  0:01:10 1512
  2908  2.6644e-03  1.0445e-03  3.4604e-04  2.5733e-03  6.4737e-04  2.5788e-04  0:00:56 1511
  2909  2.6545e-03  1.0383e-03  3.4493e-04  2.5640e-03  6.4801e-04  2.5772e-04  0:00:44 1510
  2910  2.6371e-03  9.6965e-04  3.4022e-04  2.5479e-03  6.4881e-04  2.5742e-04  0:05:37 1509
  2911  2.6266e-03  9.5311e-04  3.3784e-04  2.5383e-03  6.4965e-04  2.5698e-04  0:04:30 1508
  2912  2.6169e-03  9.3515e-04  3.3650e-04  2.5293e-03  6.5054e-04  2.5639e-04  0:03:36 1507
  2913  2.6105e-03  9.3545e-04  3.3359e-04  2.5231e-03  6.5147e-04  2.5571e-04  0:02:52 1506

  iter  continuity  x-velocity  y-velocity      energy           k       omega     time/iter
  2914  2.6087e-03  9.7059e-04  3.3460e-04  2.5212e-03  6.5239e-04  2.5534e-04  0:02:18 1505
  2915  2.6044e-03  9.8037e-04  3.3503e-04  2.5174e-03  6.5336e-04  2.5510e-04  0:01:50 1504
  2916  2.5956e-03  9.4842e-04  3.3190e-04  2.5097e-03  6.5436e-04  2.5499e-04  0:01:28 1503
  2917  2.5915e-03  9.3638e-04  3.2915e-04  2.5060e-03  6.5535e-04  2.5470e-04  0:01:10 1502
  2918  2.5900e-03  9.3489e-04  3.2724e-04  2.5050e-03  6.5639e-04  2.5430e-04  0:05:56 1501
  2919  2.5923e-03  9.4332e-04  3.2637e-04  2.5077e-03  6.5750e-04  2.5361e-04  0:04:45 1500
  2920  2.5958e-03  9.5335e-04  3.2571e-04  2.5120e-03  6.5871e-04  2.5365e-04  0:03:48 1499
  2921  2.6017e-03  9.6272e-04  3.2325e-04  2.5182e-03  6.5999e-04  2.5382e-04  0:03:02 1498
  2922  2.6094e-03  9.7550e-04  3.2195e-04  2.5266e-03  6.6131e-04  2.5384e-04  0:02:26 1497
  2923  2.6174e-03  9.8723e-04  3.2470e-04  2.5355e-03  6.6270e-04  2.5370e-04  0:01:56 1496
  2924  2.6244e-03  9.7823e-04  3.2360e-04  2.5435e-03  6.6413e-04  2.5307e-04  0:01:33 1495

  iter  continuity  x-velocity  y-velocity      energy           k       omega     time/iter
  2925  2.6354e-03  9.8075e-04  3.2079e-04  2.5556e-03  6.6561e-04  2.5280e-04  0:01:14 1494
  2926  2.6514e-03  1.0057e-03  3.2021e-04  2.5728e-03  6.6707e-04  2.5315e-04  0:00:59 1493
  2927  2.6666e-03  1.0217e-03  3.2260e-04  2.5891e-03  6.6848e-04  2.5335e-04  0:00:48 1492
  2928  2.6827e-03  1.0159e-03  3.2298e-04  2.6058e-03  6.6989e-04  2.5326e-04  0:00:38 1491
  2929  2.7021e-03  1.0310e-03  3.2400e-04  2.6254e-03  6.7138e-04  2.5312e-04  0:05:28 1490
  2930  2.7214e-03  1.0399e-03  3.2578e-04  2.6444e-03  6.7289e-04  2.5302e-04  0:04:23 1489
  2931  2.7366e-03  1.0573e-03  3.2545e-04  2.6600e-03  6.7437e-04  2.5259e-04  0:03:30 1488
  2932  2.7413e-03  9.8839e-04  3.1978e-04  2.6666e-03  6.7581e-04  2.5254e-04  0:02:48 1487
  2933  2.7530e-03  9.6730e-04  3.1569e-04  2.6796e-03  6.7710e-04  2.5247e-04  0:02:14 1486
  2934  2.7653e-03  9.5876e-04  3.1554e-04  2.6930e-03  6.7832e-04  2.5177e-04  0:01:47 1485
  2935  2.7768e-03  9.5404e-04  3.1703e-04  2.7055e-03  6.7944e-04  2.5063e-04  0:01:26 1484

  iter  continuity  x-velocity  y-velocity      energy           k       omega     time/iter
  2936  2.7881e-03  9.5619e-04  3.1181e-04  2.7174e-03  6.8053e-04  2.5016e-04  0:01:09 1483
  2937  2.7980e-03  9.5672e-04  3.0957e-04  2.7276e-03  6.8154e-04  2.4994e-04  0:00:55 1482
  2938  2.8068e-03  9.5599e-04  3.0810e-04  2.7367e-03  6.8252e-04  2.4952e-04  0:00:44 1481
  2939  2.8152e-03  9.5908e-04  3.0805e-04  2.7454e-03  6.8339e-04  2.4881e-04  0:05:31 1480
  2940  2.8227e-03  9.7225e-04  3.0837e-04  2.7537e-03  6.8417e-04  2.4876e-04  0:04:25 1479
  2941  2.8300e-03  9.8209e-04  3.0596e-04  2.7614e-03  6.8486e-04  2.4854e-04  0:03:32 1478
  2942  2.8368e-03  9.9054e-04  3.0330e-04  2.7689e-03  6.8546e-04  2.4819e-04  0:02:49 1477
  2943  2.8439e-03  9.9928e-04  3.0539e-04  2.7765e-03  6.8604e-04  2.4796e-04  0:02:15 1476
  2944  2.8468e-03  9.9233e-04  3.0861e-04  2.7804e-03  6.8661e-04  2.4769e-04  0:01:48 1475
  2945  2.8511e-03  9.8729e-04  3.0903e-04  2.7853e-03  6.8709e-04  2.4736e-04  0:01:26 1474
  2946  2.8551e-03  9.8687e-04  3.0403e-04  2.7899e-03  6.8751e-04  2.4682e-04  0:01:09 1473

  iter  continuity  x-velocity  y-velocity      energy           k       omega     time/iter
  2947  2.8604e-03  1.0119e-03  3.0262e-04  2.7961e-03  6.8788e-04  2.4665e-04  0:00:55 1472
  2948  2.8639e-03  1.0184e-03  3.0503e-04  2.8002e-03  6.8819e-04  2.4661e-04  0:00:44 1471
  2949  2.8671e-03  1.0285e-03  3.0765e-04  2.8041e-03  6.8856e-04  2.4652e-04  0:05:29 1470
  2950  2.8730e-03  1.0450e-03  3.1002e-04  2.8102e-03  6.8887e-04  2.4626e-04  0:04:23 1469
  2951  2.8788e-03  1.0506e-03  3.1141e-04  2.8160e-03  6.8908e-04  2.4589e-04  0:03:30 1468
  2952  2.8861e-03  1.0619e-03  3.1318e-04  2.8228e-03  6.8919e-04  2.4544e-04  0:02:48 1467
  2953  2.8935e-03  1.0891e-03  3.1529e-04  2.8298e-03  6.8925e-04  2.4468e-04  0:02:15 1466
  2954  2.8848e-03  1.0325e-03  3.0905e-04  2.8225e-03  6.8921e-04  2.4415e-04  0:01:48 1465
  2955  2.8775e-03  9.9147e-04  3.0190e-04  2.8168e-03  6.8904e-04  2.4356e-04  0:01:26 1464
  2956  2.8712e-03  9.4637e-04  2.9923e-04  2.8119e-03  6.8879e-04  2.4326e-04  0:01:09 1463
  2957  2.8666e-03  9.2480e-04  2.9637e-04  2.8080e-03  6.8844e-04  2.4313e-04  0:00:55 1462

  iter  continuity  x-velocity  y-velocity      energy           k       omega     time/iter
  2958  2.8623e-03  9.1253e-04  2.9277e-04  2.8044e-03  6.8805e-04  2.4282e-04  0:00:44 1461
  2959  2.8593e-03  9.0883e-04  2.9001e-04  2.8016e-03  6.8762e-04  2.4240e-04  0:05:27 1460
  2960  2.8556e-03  9.1289e-04  2.8790e-04  2.7985e-03  6.8723e-04  2.4195e-04  0:04:22 1459
  2961  2.8506e-03  9.0706e-04  2.8902e-04  2.7942e-03  6.8685e-04  2.4180e-04  0:03:29 1458
  2962  2.8471e-03  9.0741e-04  2.9171e-04  2.7910e-03  6.8648e-04  2.4158e-04  0:02:47 1457
  2963  2.8440e-03  9.1316e-04  2.9279e-04  2.7881e-03  6.8612e-04  2.4089e-04  0:02:14 1456
  2964  2.8394e-03  9.0044e-04  2.9185e-04  2.7835e-03  6.8577e-04  2.3996e-04  0:01:47 1455
  2965  2.8337e-03  8.9376e-04  2.8914e-04  2.7781e-03  6.8545e-04  2.3913e-04  0:01:25 1454
  2966  2.8281e-03  8.8731e-04  2.8788e-04  2.7730e-03  6.8507e-04  2.3913e-04  0:01:08 1453
  2967  2.8228e-03  8.8580e-04  2.8740e-04  2.7682e-03  6.8468e-04  2.3896e-04  0:00:55 1452
  2968  2.8190e-03  8.9535e-04  2.8851e-04  2.7649e-03  6.8429e-04  2.3872e-04  0:00:44 1451

  iter  continuity  x-velocity  y-velocity      energy           k       omega     time/iter
  2969  2.8140e-03  9.0604e-04  2.9105e-04  2.7603e-03  6.8387e-04  2.3835e-04  0:05:25 1450
  2970  2.8083e-03  9.0696e-04  2.8968e-04  2.7553e-03  6.8351e-04  2.3798e-04  0:04:20 1449
  2971  2.8045e-03  9.0684e-04  2.8913e-04  2.7521e-03  6.8321e-04  2.3745e-04  0:03:28 1448
  2972  2.8035e-03  9.2841e-04  2.9263e-04  2.7513e-03  6.8293e-04  2.3729e-04  0:02:46 1447
  2973  2.7990e-03  9.3309e-04  2.9384e-04  2.7470e-03  6.8262e-04  2.3703e-04  0:02:13 1446
  2974  2.7969e-03  9.1670e-04  2.9310e-04  2.7450e-03  6.8226e-04  2.3667e-04  0:01:46 1445
  2975  2.7987e-03  9.4938e-04  2.9685e-04  2.7460e-03  6.8190e-04  2.3614e-04  0:01:25 1444
  2976  2.7986e-03  9.5959e-04  2.9526e-04  2.7457e-03  6.8148e-04  2.3555e-04  0:01:08 1443
  2977  2.7851e-03  9.0417e-04  2.9214e-04  2.7331e-03  6.8105e-04  2.3528e-04  0:00:54 1442
  2978  2.7752e-03  8.5035e-04  2.8770e-04  2.7244e-03  6.8058e-04  2.3483e-04  0:00:43 1441
  2979  2.7679e-03  8.3287e-04  2.8579e-04  2.7180e-03  6.8005e-04  2.3432e-04  0:05:23 1440

  iter  continuity  x-velocity  y-velocity      energy           k       omega     time/iter
  2980  2.7613e-03  8.2260e-04  2.8499e-04  2.7120e-03  6.7950e-04  2.3372e-04  0:04:18 1439
  2981  2.7549e-03  8.0865e-04  2.8402e-04  2.7060e-03  6.7888e-04  2.3313e-04  0:03:26 1438
  2982  2.7484e-03  8.0547e-04  2.8392e-04  2.6999e-03  6.7825e-04  2.3261e-04  0:02:45 1437
  2983  2.7417e-03  8.0756e-04  2.7990e-04  2.6934e-03  6.7756e-04  2.3210e-04  0:02:12 1436
  2984  2.7341e-03  8.0384e-04  2.7525e-04  2.6860e-03  6.7679e-04  2.3152e-04  0:01:45 1435
  2985  2.7252e-03  8.0302e-04  2.7518e-04  2.6771e-03  6.7601e-04  2.3086e-04  0:01:24 1434
  2986  2.7160e-03  8.0233e-04  2.7380e-04  2.6680e-03  6.7524e-04  2.3015e-04  0:01:07 1433
  2987  2.7079e-03  8.0624e-04  2.7556e-04  2.6599e-03  6.7446e-04  2.2941e-04  0:00:54 1432
  2988  2.6996e-03  8.2071e-04  2.7755e-04  2.6517e-03  6.7361e-04  2.2882e-04  0:00:43 1431
  2989  2.6895e-03  8.2815e-04  2.7694e-04  2.6420e-03  6.7277e-04  2.2776e-04  0:00:34 1430
  2990  2.6775e-03  8.2866e-04  2.7350e-04  2.6301e-03  6.7192e-04  2.2642e-04  0:05:13 1429

  iter  continuity  x-velocity  y-velocity      energy           k       omega     time/iter
  2991  2.6650e-03  8.2552e-04  2.6896e-04  2.6179e-03  6.7107e-04  2.2527e-04  0:04:10 1428
  2992  2.6542e-03  8.3278e-04  2.7023e-04  2.6070e-03  6.7021e-04  2.2450e-04  0:03:20 1427
  2993  2.6441e-03  8.6456e-04  2.7266e-04  2.5968e-03  6.6931e-04  2.2357e-04  0:02:40 1426
  2994  2.6301e-03  8.6593e-04  2.7419e-04  2.5828e-03  6.6838e-04  2.2261e-04  0:02:08 1425
  2995  2.6086e-03  8.2964e-04  2.7033e-04  2.5620e-03  6.6746e-04  2.2174e-04  0:01:42 1424
  2996  2.5909e-03  8.1245e-04  2.6726e-04  2.5450e-03  6.6659e-04  2.2088e-04  0:01:22 1423
  2997  2.5733e-03  8.2268e-04  2.6724e-04  2.5275e-03  6.6572e-04  2.1984e-04  0:01:05 1422
  2998  2.5532e-03  7.9074e-04  2.6639e-04  2.5076e-03  6.6482e-04  2.1843e-04  0:00:52 1421
  2999  2.5413e-03  8.2107e-04  2.7015e-04  2.4951e-03  6.6388e-04  2.1733e-04  0:00:42 1420
  3000  2.5238e-03  8.3570e-04  2.7022e-04  2.4766e-03  6.6291e-04  2.1626e-04  0:05:17 1419
  3001  2.5028e-03  8.3591e-04  2.6918e-04  2.4555e-03  6.6189e-04  2.1550e-04  0:04:14 1418

  iter  continuity  x-velocity  y-velocity      energy           k       omega     time/iter
  3002  2.4712e-03  7.3154e-04  2.6402e-04  2.4252e-03  6.6085e-04  2.1467e-04  0:03:23 1417
  3003  2.4469e-03  7.0951e-04  2.5972e-04  2.4018e-03  6.5978e-04  2.1372e-04  0:02:42 1416
  3004  2.4242e-03  6.9687e-04  2.5584e-04  2.3795e-03  6.5878e-04  2.1274e-04  0:02:10 1415
  3005  2.4008e-03  6.8791e-04  2.5240e-04  2.3563e-03  6.5781e-04  2.1172e-04  0:01:44 1414
  3006  2.3768e-03  6.8085e-04  2.4930e-04  2.3322e-03  6.5686e-04  2.1072e-04  0:01:23 1413
  3007  2.3528e-03  6.7146e-04  2.4881e-04  2.3080e-03  6.5592e-04  2.0974e-04  0:01:06 1412
  3008  2.3292e-03  6.6932e-04  2.5152e-04  2.2844e-03  6.5494e-04  2.0877e-04  0:00:53 1411
  3009  2.3062e-03  6.7102e-04  2.5024e-04  2.2613e-03  6.5397e-04  2.0779e-04  0:00:42 1410
  3010  2.2844e-03  6.7917e-04  2.4724e-04  2.2392e-03  6.5299e-04  2.0676e-04  0:05:16 1409
  3011  2.2619e-03  6.7185e-04  2.4455e-04  2.2163e-03  6.5198e-04  2.0578e-04  0:04:12 1408
  3012  2.2402e-03  6.8057e-04  2.4343e-04  2.1943e-03  6.5103e-04  2.0478e-04  0:03:22 1407

  iter  continuity  x-velocity  y-velocity      energy           k       omega     time/iter
  3013  2.2177e-03  6.8661e-04  2.4340e-04  2.1721e-03  6.5009e-04  2.0388e-04  0:02:41 1406
  3014  2.1966e-03  6.8673e-04  2.4454e-04  2.1511e-03  6.4916e-04  2.0298e-04  0:02:09 1405
  3015  2.1759e-03  6.8703e-04  2.4533e-04  2.1303e-03  6.4822e-04  2.0207e-04  0:01:43 1404
  3016  2.1530e-03  6.7754e-04  2.4236e-04  2.1073e-03  6.4728e-04  2.0113e-04  0:01:22 1403
  3017  2.1313e-03  6.7831e-04  2.3999e-04  2.0856e-03  6.4634e-04  2.0019e-04  0:01:06 1402
  3018  2.1091e-03  6.8314e-04  2.3769e-04  2.0636e-03  6.4536e-04  1.9914e-04  0:00:53 1401
  3019  2.0885e-03  6.9216e-04  2.3845e-04  2.0433e-03  6.4436e-04  1.9804e-04  0:00:42 1400
  3020  2.0677e-03  7.0541e-04  2.3945e-04  2.0225e-03  6.4332e-04  1.9734e-04  0:05:13 1399
  3021  2.0465e-03  7.1961e-04  2.4169e-04  2.0016e-03  6.4225e-04  1.9660e-04  0:04:11 1398
  3022  2.0265e-03  7.4263e-04  2.4325e-04  1.9817e-03  6.4116e-04  1.9578e-04  0:03:20 1397
  3023  2.0063e-03  7.5468e-04  2.4231e-04  1.9615e-03  6.4001e-04  1.9470e-04  0:02:40 1396

  iter  continuity  x-velocity  y-velocity      energy           k       omega     time/iter
  3024  1.9845e-03  7.4730e-04  2.3892e-04  1.9396e-03  6.3881e-04  1.9336e-04  0:02:08 1395
  3025  1.9708e-03  7.7178e-04  2.4184e-04  1.9252e-03  6.3752e-04  1.9213e-04  0:01:42 1394
  3026  1.9536e-03  7.9669e-04  2.4320e-04  1.9068e-03  6.3613e-04  1.9112e-04  0:01:22 1393
  3027  1.9351e-03  8.1575e-04  2.4223e-04  1.8879e-03  6.3466e-04  1.9011e-04  0:01:05 1392
  3028  1.9015e-03  7.2117e-04  2.3661e-04  1.8556e-03  6.3311e-04  1.8905e-04  0:00:52 1391
  3029  1.8772e-03  6.9285e-04  2.3578e-04  1.8321e-03  6.3153e-04  1.8797e-04  0:00:42 1390
  3030  1.8568e-03  6.8527e-04  2.3546e-04  1.8119e-03  6.2990e-04  1.8716e-04  0:05:11 1389
  3031  1.8368e-03  6.8708e-04  2.3234e-04  1.7918e-03  6.2823e-04  1.8644e-04  0:04:09 1388
  3032  1.8217e-03  6.9946e-04  2.3037e-04  1.7762e-03  6.2652e-04  1.8568e-04  0:03:19 1387
  3033  1.8013e-03  6.8836e-04  2.2731e-04  1.7557e-03  6.2476e-04  1.8478e-04  0:02:39 1386
  3034  1.7770e-03  6.3705e-04  2.2529e-04  1.7316e-03  6.2299e-04  1.8381e-04  0:02:07 1385

  iter  continuity  x-velocity  y-velocity      energy           k       omega     time/iter
  3035  1.7581e-03  6.2171e-04  2.2438e-04  1.7131e-03  6.2121e-04  1.8280e-04  0:01:42 1384
  3036  1.7407e-03  6.2047e-04  2.2431e-04  1.6960e-03  6.1941e-04  1.8184e-04  0:01:21 1383
  3037  1.7255e-03  6.2007e-04  2.2451e-04  1.6807e-03  6.1756e-04  1.8076e-04  0:01:05 1382
  3038  1.7108e-03  6.1971e-04  2.2398e-04  1.6659e-03  6.1570e-04  1.7963e-04  0:00:52 1381
  3039  1.6957e-03  6.1420e-04  2.1983e-04  1.6506e-03  6.1385e-04  1.7875e-04  0:00:42 1380
  3040  1.6817e-03  6.1330e-04  2.1616e-04  1.6363e-03  6.1197e-04  1.7797e-04  0:00:33 1379
  3041  1.6684e-03  6.1335e-04  2.1883e-04  1.6228e-03  6.1006e-04  1.7733e-04  0:05:02 1378
  3042  1.6557e-03  6.0508e-04  2.2050e-04  1.6098e-03  6.0815e-04  1.7669e-04  0:04:02 1377
  3043  1.6451e-03  6.0179e-04  2.2273e-04  1.5990e-03  6.0619e-04  1.7604e-04  0:03:13 1376
  3044  1.6355e-03  6.0959e-04  2.2433e-04  1.5893e-03  6.0422e-04  1.7538e-04  0:02:34 1375
  3045  1.6239e-03  6.0740e-04  2.2274e-04  1.5782e-03  6.0223e-04  1.7477e-04  0:02:03 1374

  iter  continuity  x-velocity  y-velocity      energy           k       omega     time/iter
  3046  1.6155e-03  6.1069e-04  2.2089e-04  1.5700e-03  6.0022e-04  1.7421e-04  0:01:39 1373
  3047  1.6097e-03  6.1481e-04  2.1993e-04  1.5646e-03  5.9818e-04  1.7370e-04  0:01:19 1372
  3048  1.6080e-03  6.2907e-04  2.2147e-04  1.5630e-03  5.9616e-04  1.7333e-04  0:01:03 1371
  3049  1.6085e-03  6.5514e-04  2.2387e-04  1.5638e-03  5.9413e-04  1.7301e-04  0:05:24 1370
  3050  1.6093e-03  6.5885e-04  2.2592e-04  1.5649e-03  5.9215e-04  1.7278e-04  0:04:19 1369
  3051  1.6159e-03  6.6666e-04  2.2960e-04  1.5714e-03  5.9021e-04  1.7252e-04  0:03:27 1368
  3052  1.6228e-03  6.6881e-04  2.3136e-04  1.5781e-03  5.8833e-04  1.7221e-04  0:02:46 1367
  3053  1.6353e-03  6.7312e-04  2.3333e-04  1.5901e-03  5.8661e-04  1.7188e-04  0:02:12 1366
  3054  1.6509e-03  6.9879e-04  2.3228e-04  1.6047e-03  5.8494e-04  1.7127e-04  0:01:46 1365
  3055  1.6679e-03  7.2711e-04  2.3185e-04  1.6218e-03  5.8339e-04  1.7059e-04  0:01:25 1364
  3056  1.6678e-03  6.4511e-04  2.3024e-04  1.6231e-03  5.8190e-04  1.7037e-04  0:01:08 1363

  iter  continuity  x-velocity  y-velocity      energy           k       omega     time/iter
  3057  1.6793e-03  6.1424e-04  2.2980e-04  1.6357e-03  5.8048e-04  1.7001e-04  0:00:54 1362
  3058  1.6940e-03  6.0167e-04  2.3037e-04  1.6514e-03  5.7921e-04  1.6962e-04  0:00:43 1361
  3059  1.7113e-03  5.9931e-04  2.3023e-04  1.6690e-03  5.7805e-04  1.6922e-04  0:05:07 1360
  3060  1.7282e-03  5.9464e-04  2.2974e-04  1.6863e-03  5.7706e-04  1.6870e-04  0:04:05 1359
  3061  1.7465e-03  5.9304e-04  2.2828e-04  1.7049e-03  5.7632e-04  1.6823e-04  0:03:16 1358
  3062  1.7656e-03  5.9055e-04  2.2910e-04  1.7241e-03  5.7608e-04  1.6787e-04  0:02:37 1357
  3063  1.7862e-03  5.9314e-04  2.2825e-04  1.7448e-03  5.7625e-04  1.6756e-04  0:02:05 1356
  3064  1.8061e-03  5.9329e-04  2.2765e-04  1.7650e-03  5.7671e-04  1.6740e-04  0:01:40 1355
  3065  1.8273e-03  6.0643e-04  2.2745e-04  1.7862e-03  5.7742e-04  1.6732e-04  0:01:20 1354
  3066  1.8480e-03  6.1853e-04  2.2783e-04  1.8070e-03  5.7826e-04  1.6726e-04  0:01:04 1353
  3067  1.8695e-03  6.2445e-04  2.2918e-04  1.8285e-03  5.7919e-04  1.6722e-04  0:00:51 1352

  iter  continuity  x-velocity  y-velocity      energy           k       omega     time/iter
  3068  1.8901e-03  6.1935e-04  2.3198e-04  1.8490e-03  5.8023e-04  1.6722e-04  0:05:11 1351
  3069  1.9148e-03  6.3368e-04  2.3473e-04  1.8734e-03  5.8133e-04  1.6729e-04  0:04:09 1350
  3070  1.9380e-03  6.4922e-04  2.3474e-04  1.8961e-03  5.8247e-04  1.6740e-04  0:03:19 1349
  3071  1.9601e-03  6.4856e-04  2.3365e-04  1.9181e-03  5.8366e-04  1.6738e-04  0:02:39 1348
  3072  1.9808e-03  6.4656e-04  2.3228e-04  1.9390e-03  5.8485e-04  1.6735e-04  0:02:07 1347
  3073  1.9966e-03  6.0874e-04  2.3219e-04  1.9558e-03  5.8610e-04  1.6744e-04  0:01:42 1346
  3074  2.0183e-03  6.0955e-04  2.3249e-04  1.9782e-03  5.8735e-04  1.6755e-04  0:01:21 1345
  3075  2.0381e-03  6.0081e-04  2.3284e-04  1.9986e-03  5.8858e-04  1.6758e-04  0:01:05 1344
  3076  2.0592e-03  5.9651e-04  2.3331e-04  2.0201e-03  5.8980e-04  1.6801e-04  0:00:52 1343
  3077  2.0821e-03  5.9256e-04  2.3571e-04  2.0431e-03  5.9100e-04  1.6849e-04  0:00:41 1342
  3078  2.1066e-03  6.0948e-04  2.3682e-04  2.0677e-03  5.9219e-04  1.6896e-04  0:05:01 1341

  iter  continuity  x-velocity  y-velocity      energy           k       omega     time/iter
  3079  2.1295e-03  6.1535e-04  2.3451e-04  2.0907e-03  5.9336e-04  1.6936e-04  0:04:01 1340
  3080  2.1529e-03  6.1106e-04  2.3410e-04  2.1142e-03  5.9452e-04  1.6978e-04  0:03:13 1339
  3081  2.1780e-03  6.1366e-04  2.3676e-04  2.1392e-03  5.9561e-04  1.7013e-04  0:02:34 1338
  3082  2.2040e-03  6.3343e-04  2.3863e-04  2.1650e-03  5.9665e-04  1.7046e-04  0:02:03 1337
  3083  2.2295e-03  6.3121e-04  2.3950e-04  2.1901e-03  5.9770e-04  1.7068e-04  0:01:38 1336
  3084  2.2597e-03  6.8303e-04  2.4164e-04  2.2196e-03  5.9870e-04  1.7072e-04  0:01:19 1335
  3085  2.2838e-03  7.1051e-04  2.4275e-04  2.2438e-03  5.9962e-04  1.7105e-04  0:01:03 1334
  3086  2.2976e-03  6.3171e-04  2.4199e-04  2.2585e-03  6.0047e-04  1.7132e-04  0:00:50 1333
  3087  2.3167e-03  5.9795e-04  2.3894e-04  2.2783e-03  6.0123e-04  1.7155e-04  0:00:40 1332
  3088  2.3361e-03  5.8171e-04  2.3766e-04  2.2983e-03  6.0190e-04  1.7180e-04  0:04:58 1331
  3089  2.3554e-03  5.7524e-04  2.3776e-04  2.3178e-03  6.0244e-04  1.7189e-04  0:03:58 1330

  iter  continuity  x-velocity  y-velocity      energy           k       omega     time/iter
  3090  2.3745e-03  5.7684e-04  2.3748e-04  2.3370e-03  6.0289e-04  1.7193e-04  0:03:11 1329
  3091  2.3924e-03  5.8089e-04  2.3613e-04  2.3549e-03  6.0322e-04  1.7196e-04  0:02:32 1328
  3092  2.4085e-03  5.8698e-04  2.3548e-04  2.3709e-03  6.0347e-04  1.7195e-04  0:02:02 1327
  3093  2.4228e-03  5.8892e-04  2.3537e-04  2.3851e-03  6.0362e-04  1.7172e-04  0:01:37 1326
  3094  2.4353e-03  5.8750e-04  2.3504e-04  2.3975e-03  6.0365e-04  1.7169e-04  0:01:18 1325
  3095  2.4460e-03  5.8657e-04  2.3599e-04  2.4083e-03  6.0358e-04  1.7173e-04  0:01:02 1324
  3096  2.4555e-03  5.9362e-04  2.3633e-04  2.4177e-03  6.0334e-04  1.7167e-04  0:00:50 1323
  3097  2.4636e-03  6.0513e-04  2.3592e-04  2.4258e-03  6.0294e-04  1.7153e-04  0:00:40 1322
  3098  2.4699e-03  6.1473e-04  2.3608e-04  2.4320e-03  6.0236e-04  1.7144e-04  0:04:56 1321
  3099  2.4745e-03  6.2687e-04  2.3582e-04  2.4365e-03  6.0164e-04  1.7127e-04  0:03:57 1320
  3100  2.4766e-03  6.2880e-04  2.3636e-04  2.4386e-03  6.0078e-04  1.7112e-04  0:03:09 1319

[...]
  3940  1.4971e-03  3.1027e-04  1.5242e-04  1.4539e-03  2.3832e-04  1.0795e-04  0:00:35  479
  3941  1.5006e-03  3.1500e-04  1.5352e-04  1.4577e-03  2.3896e-04  1.0801e-04  0:00:28  478
  3942  1.5041e-03  3.1545e-04  1.5472e-04  1.4615e-03  2.3966e-04  1.0807e-04  0:00:22  477
  3943  1.5085e-03  3.1473e-04  1.5563e-04  1.4662e-03  2.4044e-04  1.0816e-04  0:00:18  476
  3944  1.5135e-03  3.1367e-04  1.5658e-04  1.4716e-03  2.4127e-04  1.0822e-04  0:00:14  475
  3945  1.5187e-03  3.1159e-04  1.5700e-04  1.4771e-03  2.4210e-04  1.0823e-04  0:01:46  474
  3946  1.5244e-03  3.1124e-04  1.5626e-04  1.4832e-03  2.4293e-04  1.0820e-04  0:01:25  473
  3947  1.5303e-03  3.1150e-04  1.5534e-04  1.4894e-03  2.4374e-04  1.0810e-04  0:01:08  472

  iter  continuity  x-velocity  y-velocity      energy           k       omega     time/iter
  3948  1.5361e-03  3.1518e-04  1.5404e-04  1.4956e-03  2.4449e-04  1.0798e-04  0:00:54  471
  3949  1.5422e-03  3.1757e-04  1.5272e-04  1.5021e-03  2.4523e-04  1.0786e-04  0:00:43  470
  3950  1.5493e-03  3.2017e-04  1.5229e-04  1.5095e-03  2.4604e-04  1.0773e-04  0:00:34  469
  3951  1.5564e-03  3.2631e-04  1.5238e-04  1.5168e-03  2.4693e-04  1.0757e-04  0:00:27  468
  3952  1.5636e-03  3.3074e-04  1.5355e-04  1.5243e-03  2.4785e-04  1.0745e-04  0:00:22  467
  3953  1.5711e-03  3.2875e-04  1.5476e-04  1.5321e-03  2.4880e-04  1.0732e-04  0:00:18  466
  3954  1.5796e-03  3.2743e-04  1.5611e-04  1.5408e-03  2.4974e-04  1.0718e-04  0:00:14  465
  3955  1.5882e-03  3.2774e-04  1.5639e-04  1.5497e-03  2.5071e-04  1.0700e-04  0:00:11  464
  3956  1.5971e-03  3.2791e-04  1.5670e-04  1.5590e-03  2.5164e-04  1.0678e-04  0:01:42  463
  3957  1.6065e-03  3.2721e-04  1.5687e-04  1.5687e-03  2.5252e-04  1.0653e-04  0:01:21  462
  3958  1.6161e-03  3.2273e-04  1.5678e-04  1.5787e-03  2.5338e-04  1.0629e-04  0:01:05  461

  iter  continuity  x-velocity  y-velocity      energy           k       omega     time/iter
  3959  1.6265e-03  3.1952e-04  1.5602e-04  1.5894e-03  2.5419e-04  1.0604e-04  0:00:52  460
  3960  1.6375e-03  3.1949e-04  1.5491e-04  1.6007e-03  2.5492e-04  1.0577e-04  0:00:41  459
  3961  1.6486e-03  3.2083e-04  1.5415e-04  1.6122e-03  2.5559e-04  1.0550e-04  0:00:33  458
  3962  1.6598e-03  3.2123e-04  1.5358e-04  1.6236e-03  2.5626e-04  1.0523e-04  0:00:26  457
  3963  1.6715e-03  3.2322e-04  1.5315e-04  1.6357e-03  2.5693e-04  1.0495e-04  0:00:21  456
  3964  1.6838e-03  3.2399e-04  1.5271e-04  1.6482e-03  2.5764e-04  1.0468e-04  0:00:17  455
  3965  1.6964e-03  3.2486e-04  1.5239e-04  1.6611e-03  2.5835e-04  1.0442e-04  0:00:13  454
  3966  1.7090e-03  3.2788e-04  1.5185e-04  1.6740e-03  2.5907e-04  1.0413e-04  0:01:41  453
  3967  1.7217e-03  3.2849e-04  1.5125e-04  1.6870e-03  2.5979e-04  1.0385e-04  0:01:21  452
  3968  1.7344e-03  3.2714e-04  1.5080e-04  1.7000e-03  2.6052e-04  1.0357e-04  0:01:05  451
  3969  1.7476e-03  3.2941e-04  1.5028e-04  1.7135e-03  2.6123e-04  1.0327e-04  0:00:52  450

  iter  continuity  x-velocity  y-velocity      energy           k       omega     time/iter
  3970  1.7613e-03  3.3189e-04  1.4952e-04  1.7275e-03  2.6189e-04  1.0295e-04  0:00:41  449
  3971  1.7748e-03  3.3439e-04  1.4878e-04  1.7413e-03  2.6253e-04  1.0260e-04  0:00:33  448
  3972  1.7885e-03  3.3608e-04  1.4827e-04  1.7552e-03  2.6312e-04  1.0227e-04  0:00:26  447
  3973  1.8025e-03  3.3782e-04  1.4789e-04  1.7695e-03  2.6365e-04  1.0191e-04  0:00:21  446
  3974  1.8166e-03  3.3874e-04  1.4743e-04  1.7838e-03  2.6415e-04  1.0151e-04  0:00:17  445
  3975  1.8308e-03  3.4095e-04  1.4710e-04  1.7983e-03  2.6462e-04  1.0110e-04  0:01:42  444
  3976  1.8451e-03  3.3988e-04  1.4679e-04  1.8128e-03  2.6504e-04  1.0068e-04  0:01:22  443
  3977  1.8596e-03  3.4095e-04  1.4585e-04  1.8275e-03  2.6549e-04  1.0027e-04  0:01:05  442
  3978  1.8740e-03  3.4188e-04  1.4545e-04  1.8421e-03  2.6589e-04  9.9837e-05  0:00:52  441
  3979  1.8882e-03  3.3780e-04  1.4586e-04  1.8564e-03  2.6630e-04  9.9413e-05  0:00:41  440
  3980  1.9026e-03  3.3587e-04  1.4685e-04  1.8709e-03  2.6669e-04  9.8976e-05  0:00:33  439

  iter  continuity  x-velocity  y-velocity      energy           k       omega     time/iter
  3981  1.9170e-03  3.3572e-04  1.4744e-04  1.8855e-03  2.6704e-04  9.8547e-05  0:00:26  438
  3982  1.9314e-03  3.3456e-04  1.4754e-04  1.9001e-03  2.6732e-04  9.8140e-05  0:00:21  437
  3983  1.9461e-03  3.3554e-04  1.4775e-04  1.9149e-03  2.6755e-04  9.7747e-05  0:01:44  436
  3984  1.9605e-03  3.3471e-04  1.4765e-04  1.9294e-03  2.6765e-04  9.7337e-05  0:01:23  435
  3985  1.9748e-03  3.3401e-04  1.4731e-04  1.9439e-03  2.6767e-04  9.6941e-05  0:01:06  434
  3986  1.9892e-03  3.3567e-04  1.4702e-04  1.9584e-03  2.6763e-04  9.6535e-05  0:00:53  433
  3987  2.0032e-03  3.3735e-04  1.4675e-04  1.9725e-03  2.6755e-04  9.6119e-05  0:00:42  432
  3988  2.0175e-03  3.3893e-04  1.4616e-04  1.9869e-03  2.6740e-04  9.5707e-05  0:00:34  431
  3989  2.0314e-03  3.4174e-04  1.4528e-04  2.0009e-03  2.6717e-04  9.5270e-05  0:00:27  430
  3990  2.0452e-03  3.4125e-04  1.4431e-04  2.0148e-03  2.6686e-04  9.4813e-05  0:00:21  429
  3991  2.0587e-03  3.3882e-04  1.4306e-04  2.0284e-03  2.6650e-04  9.4351e-05  0:00:17  428

  iter  continuity  x-velocity  y-velocity      energy           k       omega     time/iter
  3992  2.0722e-03  3.3785e-04  1.4196e-04  2.0419e-03  2.6608e-04  9.3856e-05  0:00:14  427
  3993  2.0852e-03  3.3824e-04  1.4100e-04  2.0551e-03  2.6560e-04  9.3365e-05  0:01:36  426
  3994  2.0978e-03  3.3865e-04  1.3988e-04  2.0677e-03  2.6504e-04  9.2906e-05  0:01:17  425
  3995  2.1099e-03  3.3832e-04  1.3861e-04  2.0799e-03  2.6444e-04  9.2508e-05  0:01:01  424
  3996  2.1220e-03  3.3975e-04  1.3721e-04  2.0920e-03  2.6381e-04  9.2123e-05  0:00:49  423
  3997  2.1335e-03  3.3862e-04  1.3591e-04  2.1035e-03  2.6309e-04  9.1720e-05  0:00:39  422
  3998  2.1445e-03  3.3233e-04  1.3486e-04  2.1146e-03  2.6233e-04  9.1301e-05  0:00:31  421
  3999  2.1554e-03  3.2796e-04  1.3364e-04  2.1255e-03  2.6153e-04  9.0826e-05  0:00:25  420
  4000  2.1659e-03  3.2569e-04  1.3262e-04  2.1361e-03  2.6068e-04  9.0328e-05  0:00:20  419
  4001  2.1763e-03  3.2558e-04  1.3176e-04  2.1465e-03  2.5979e-04  8.9788e-05  0:00:16  418
  4002  2.1862e-03  3.2365e-04  1.3083e-04  2.1564e-03  2.5882e-04  8.9233e-05  0:01:36  417

  iter  continuity  x-velocity  y-velocity      energy           k       omega     time/iter
  4003  2.1957e-03  3.2223e-04  1.3043e-04  2.1659e-03  2.5781e-04  8.8705e-05  0:01:17  416
  4004  2.2050e-03  3.2159e-04  1.3054e-04  2.1752e-03  2.5674e-04  8.8182e-05  0:01:01  415
  4005  2.2137e-03  3.2043e-04  1.3035e-04  2.1839e-03  2.5565e-04  8.7671e-05  0:00:49  414
  4006  2.2219e-03  3.1925e-04  1.2998e-04  2.1922e-03  2.5454e-04  8.7174e-05  0:00:39  413
  4007  2.2296e-03  3.1807e-04  1.2948e-04  2.1999e-03  2.5338e-04  8.6683e-05  0:00:31  412
  4008  2.2370e-03  3.1728e-04  1.2879e-04  2.2072e-03  2.5217e-04  8.6178e-05  0:00:25  411
  4009  2.2438e-03  3.1693e-04  1.2817e-04  2.2140e-03  2.5087e-04  8.5688e-05  0:00:20  410
  4010  2.2500e-03  3.1756e-04  1.2761e-04  2.2202e-03  2.4954e-04  8.5213e-05  0:00:16  409
  4011  2.2557e-03  3.1553e-04  1.2693e-04  2.2259e-03  2.4818e-04  8.4728e-05  0:00:13  408
  4012  2.2610e-03  3.1322e-04  1.2631e-04  2.2311e-03  2.4675e-04  8.4266e-05  0:00:10  407
  4013  2.2657e-03  3.1006e-04  1.2640e-04  2.2358e-03  2.4527e-04  8.3790e-05  0:01:29  406

  iter  continuity  x-velocity  y-velocity      energy           k       omega     time/iter
  4014  2.2698e-03  3.0910e-04  1.2692e-04  2.2399e-03  2.4375e-04  8.3327e-05  0:01:11  405
  4015  2.2733e-03  3.0935e-04  1.2714e-04  2.2434e-03  2.4222e-04  8.2844e-05  0:00:57  404
  4016  2.2765e-03  3.1137e-04  1.2701e-04  2.2466e-03  2.4067e-04  8.2339e-05  0:00:45  403
  4017  2.2792e-03  3.1738e-04  1.2629e-04  2.2493e-03  2.3907e-04  8.1827e-05  0:00:36  402
  4018  2.2812e-03  3.1477e-04  1.2518e-04  2.2513e-03  2.3744e-04  8.1321e-05  0:00:29  401
  4019  2.2829e-03  3.1691e-04  1.2372e-04  2.2530e-03  2.3578e-04  8.0828e-05  0:00:23  400
  4020  2.2843e-03  3.2333e-04  1.2233e-04  2.2544e-03  2.3407e-04  8.0354e-05  0:00:18  399
  4021  2.2850e-03  3.1788e-04  1.2112e-04  2.2550e-03  2.3231e-04  7.9870e-05  0:00:15  398
  4022  2.2851e-03  3.1306e-04  1.1972e-04  2.2552e-03  2.3049e-04  7.9402e-05  0:00:12  397
  4023  2.2850e-03  3.0810e-04  1.1839e-04  2.2550e-03  2.2861e-04  7.8924e-05  0:01:29  396
  4024  2.2845e-03  3.0318e-04  1.1756e-04  2.2544e-03  2.2667e-04  7.8473e-05  0:01:11  395

  iter  continuity  x-velocity  y-velocity      energy           k       omega     time/iter
  4025  2.2837e-03  3.0106e-04  1.1687e-04  2.2536e-03  2.2468e-04  7.8020e-05  0:00:56  394
  4026  2.2825e-03  2.9980e-04  1.1577e-04  2.2523e-03  2.2266e-04  7.7628e-05  0:00:45  393
  4027  2.2809e-03  2.9803e-04  1.1466e-04  2.2507e-03  2.2066e-04  7.7270e-05  0:00:36  392
  4028  2.2789e-03  2.9678e-04  1.1396e-04  2.2487e-03  2.1867e-04  7.6950e-05  0:00:29  391
  4029  2.2767e-03  2.9743e-04  1.1362e-04  2.2464e-03  2.1669e-04  7.6644e-05  0:00:23  390
  4030  2.2740e-03  2.9729e-04  1.1313e-04  2.2437e-03  2.1467e-04  7.6362e-05  0:00:18  389
  4031  2.2710e-03  2.9663e-04  1.1220e-04  2.2407e-03  2.1263e-04  7.6086e-05  0:00:15  388
  4032  2.2677e-03  2.9785e-04  1.1108e-04  2.2374e-03  2.1057e-04  7.5868e-05  0:01:29  387
  4033  2.2641e-03  2.9886e-04  1.0956e-04  2.2338e-03  2.0851e-04  7.5665e-05  0:01:11  386
  4034  2.2598e-03  2.9123e-04  1.0770e-04  2.2294e-03  2.0640e-04  7.5487e-05  0:00:57  385
  4035  2.2551e-03  2.8570e-04  1.0594e-04  2.2248e-03  2.0428e-04  7.5305e-05  0:00:45  384

  iter  continuity  x-velocity  y-velocity      energy           k       omega     time/iter
  4036  2.2501e-03  2.8353e-04  1.0524e-04  2.2198e-03  2.0215e-04  7.5136e-05  0:00:36  383
  4037  2.2448e-03  2.8241e-04  1.0467e-04  2.2145e-03  2.0005e-04  7.4999e-05  0:00:29  382
  4038  2.2390e-03  2.8188e-04  1.0469e-04  2.2087e-03  1.9801e-04  7.4891e-05  0:00:23  381
  4039  2.2328e-03  2.7938e-04  1.0440e-04  2.2025e-03  1.9598e-04  7.4810e-05  0:00:18  380
  4040  2.2261e-03  2.7644e-04  1.0373e-04  2.1959e-03  1.9394e-04  7.4764e-05  0:00:15  379
  4041  2.2190e-03  2.7426e-04  1.0240e-04  2.1888e-03  1.9185e-04  7.4718e-05  0:00:12  378
  4042  2.2115e-03  2.7190e-04  1.0092e-04  2.1812e-03  1.8970e-04  7.4695e-05  0:00:09  377
  4043  2.2035e-03  2.6872e-04  9.9874e-05  2.1732e-03  1.8752e-04  7.4683e-05  0:01:23  376
  4044  2.1950e-03  2.6313e-04  9.8902e-05  2.1647e-03  1.8531e-04  7.4681e-05  0:01:06  375
  4045  2.1861e-03  2.5752e-04  9.8056e-05  2.1558e-03  1.8314e-04  7.4693e-05  0:00:53  374
  4046  2.1768e-03  2.5512e-04  9.7487e-05  2.1464e-03  1.8100e-04  7.4729e-05  0:00:42  373

  iter  continuity  x-velocity  y-velocity      energy           k       omega     time/iter
  4047  2.1671e-03  2.5611e-04  9.7060e-05  2.1368e-03  1.7886e-04  7.4778e-05  0:00:33  372
  4048  2.1570e-03  2.5648e-04  9.7569e-05  2.1267e-03  1.7675e-04  7.4813e-05  0:00:27  371
  4049  2.1466e-03  2.5867e-04  9.7948e-05  2.1163e-03  1.7462e-04  7.4835e-05  0:00:21  370
  4050  2.1359e-03  2.6246e-04  9.7064e-05  2.1056e-03  1.7248e-04  7.4814e-05  0:00:17  369
  4051  2.1247e-03  2.6765e-04  9.5588e-05  2.0944e-03  1.7035e-04  7.4749e-05  0:00:14  368
  4052  2.1132e-03  2.7430e-04  9.3828e-05  2.0829e-03  1.6822e-04  7.4651e-05  0:01:24  367
  4053  2.1009e-03  2.7019e-04  9.2247e-05  2.0706e-03  1.6610e-04  7.4549e-05  0:01:07  366
  4054  2.0883e-03  2.6570e-04  9.1447e-05  2.0580e-03  1.6396e-04  7.4437e-05  0:00:54  365
  4055  2.0754e-03  2.6738e-04  9.1065e-05  2.0451e-03  1.6181e-04  7.4333e-05  0:00:43  364
  4056  2.0621e-03  2.7078e-04  9.0923e-05  2.0318e-03  1.5967e-04  7.4266e-05  0:00:34  363
  4057  2.0482e-03  2.6844e-04  9.0704e-05  2.0180e-03  1.5751e-04  7.4230e-05  0:00:27  362

  iter  continuity  x-velocity  y-velocity      energy           k       omega     time/iter
  4058  2.0340e-03  2.7144e-04  9.0875e-05  2.0039e-03  1.5535e-04  7.4195e-05  0:00:22  361
  4059  2.0194e-03  2.6697e-04  9.1111e-05  1.9893e-03  1.5323e-04  7.4168e-05  0:00:17  360
  4060  2.0045e-03  2.6520e-04  9.1232e-05  1.9744e-03  1.5113e-04  7.4132e-05  0:00:14  359
  4061  1.9894e-03  2.6495e-04  9.1283e-05  1.9594e-03  1.4906e-04  7.4084e-05  0:00:11  358
  4062  1.9739e-03  2.6592e-04  9.1955e-05  1.9440e-03  1.4705e-04  7.4035e-05  0:00:09  357
  4063  1.9580e-03  2.6612e-04  9.1879e-05  1.9283e-03  1.4508e-04  7.3982e-05  0:01:18  356
  4064  1.9420e-03  2.6543e-04  9.0949e-05  1.9123e-03  1.4314e-04  7.3938e-05  0:01:02  355
  4065  1.9257e-03  2.6294e-04  8.9889e-05  1.8961e-03  1.4125e-04  7.3907e-05  0:00:50  354
  4066  1.9095e-03  2.6318e-04  8.9264e-05  1.8800e-03  1.3941e-04  7.3868e-05  0:00:40  353
  4067  1.8930e-03  2.5708e-04  8.8960e-05  1.8635e-03  1.3764e-04  7.3830e-05  0:00:32  352
  4068  1.8765e-03  2.5435e-04  8.8568e-05  1.8471e-03  1.3594e-04  7.3809e-05  0:00:25  351

  iter  continuity  x-velocity  y-velocity      energy           k       omega     time/iter
  4069  1.8601e-03  2.5551e-04  8.8064e-05  1.8306e-03  1.3433e-04  7.3810e-05  0:00:20  350
  4070  1.8436e-03  2.6034e-04  8.7313e-05  1.8141e-03  1.3280e-04  7.3804e-05  0:00:16  349
  4071  1.8271e-03  2.6421e-04  8.7067e-05  1.7976e-03  1.3140e-04  7.3803e-05  0:00:13  348
  4072  1.8106e-03  2.7319e-04  8.7718e-05  1.7812e-03  1.3010e-04  7.3804e-05  0:00:10  347
  4073  1.7938e-03  2.7724e-04  8.8386e-05  1.7644e-03  1.2891e-04  7.3813e-05  0:01:17  346
  4074  1.7765e-03  2.6871e-04  8.8895e-05  1.7472e-03  1.2784e-04  7.3830e-05  0:01:02  345
  4075  1.7593e-03  2.6066e-04  8.9341e-05  1.7300e-03  1.2688e-04  7.3835e-05  0:00:49  344
  4076  1.7421e-03  2.5796e-04  8.9537e-05  1.7130e-03  1.2600e-04  7.3837e-05  0:00:39  343
  4077  1.7251e-03  2.6031e-04  9.0189e-05  1.6960e-03  1.2522e-04  7.3813e-05  0:00:31  342
  4078  1.7082e-03  2.6960e-04  9.1457e-05  1.6792e-03  1.2458e-04  7.3774e-05  0:00:25  341
  4079  1.6914e-03  2.7945e-04  9.2047e-05  1.6623e-03  1.2401e-04  7.3755e-05  0:00:20  340

  iter  continuity  x-velocity  y-velocity      energy           k       omega     time/iter
  4080  1.6742e-03  2.7589e-04  9.2133e-05  1.6452e-03  1.2353e-04  7.3718e-05  0:00:16  339
  4081  1.6570e-03  2.7698e-04  9.1879e-05  1.6280e-03  1.2313e-04  7.3688e-05  0:00:13  338
  4082  1.6393e-03  2.7458e-04  9.1612e-05  1.6105e-03  1.2282e-04  7.3655e-05  0:01:18  337
  4083  1.6212e-03  2.6703e-04  9.1195e-05  1.5925e-03  1.2261e-04  7.3608e-05  0:01:02  336
  4084  1.6036e-03  2.6838e-04  9.0606e-05  1.5750e-03  1.2250e-04  7.3559e-05  0:00:49  335
  4085  1.5856e-03  2.6102e-04  9.0830e-05  1.5571e-03  1.2249e-04  7.3491e-05  0:00:39  334
  4086  1.5679e-03  2.5845e-04  9.1300e-05  1.5396e-03  1.2257e-04  7.3401e-05  0:00:31  333
  4087  1.5507e-03  2.6261e-04  9.1386e-05  1.5225e-03  1.2277e-04  7.3341e-05  0:00:25  332
  4088  1.5343e-03  2.8442e-04  9.1299e-05  1.5062e-03  1.2309e-04  7.3286e-05  0:00:20  331
  4089  1.5177e-03  2.9867e-04  9.1073e-05  1.4896e-03  1.2354e-04  7.3255e-05  0:00:16  330
  4090  1.5004e-03  2.9956e-04  9.0964e-05  1.4725e-03  1.2411e-04  7.3227e-05  0:00:13  329

  iter  continuity  x-velocity  y-velocity      energy           k       omega     time/iter
  4091  1.4836e-03  3.0407e-04  9.1786e-05  1.4557e-03  1.2474e-04  7.3170e-05  0:01:16  328
  4092  1.4667e-03  2.9899e-04  9.1952e-05  1.4389e-03  1.2544e-04  7.3106e-05  0:01:00  327
  4093  1.4491e-03  2.9086e-04  9.2370e-05  1.4214e-03  1.2622e-04  7.3020e-05  0:00:48  326
  4094  1.4318e-03  2.7963e-04  9.1760e-05  1.4041e-03  1.2705e-04  7.2921e-05  0:00:38  325
  4095  1.4153e-03  2.8714e-04  9.1294e-05  1.3875e-03  1.2797e-04  7.2798e-05  0:00:31  324
  4096  1.3992e-03  2.9830e-04  9.0989e-05  1.3713e-03  1.2898e-04  7.2684e-05  0:00:24  323
  4097  1.3834e-03  3.1541e-04  9.1131e-05  1.3554e-03  1.3008e-04  7.2564e-05  0:00:19  322
  4098  1.3662e-03  3.0923e-04  9.1739e-05  1.3383e-03  1.3125e-04  7.2440e-05  0:00:16  321
  4099  1.3478e-03  2.8600e-04  9.1664e-05  1.3200e-03  1.3248e-04  7.2321e-05  0:00:12  320
  4100  1.3298e-03  2.6077e-04  9.1073e-05  1.3022e-03  1.3378e-04  7.2238e-05  0:00:10  319
  4101  1.3124e-03  2.4428e-04  9.0244e-05  1.2849e-03  1.3511e-04  7.2165e-05  0:01:11  318

  iter  continuity  x-velocity  y-velocity      energy           k       omega     time/iter
  4102  1.2961e-03  2.4513e-04  8.9613e-05  1.2686e-03  1.3647e-04  7.2109e-05  0:00:57  317
  4103  1.2804e-03  2.5491e-04  8.9316e-05  1.2529e-03  1.3784e-04  7.2076e-05  0:00:45  316
  4104  1.2647e-03  2.5800e-04  8.9679e-05  1.2371e-03  1.3919e-04  7.2032e-05  0:00:36  315
  4105  1.2489e-03  2.5718e-04  8.9954e-05  1.2213e-03  1.4052e-04  7.1994e-05  0:00:29  314
  4106  1.2334e-03  2.5855e-04  9.0888e-05  1.2057e-03  1.4182e-04  7.1939e-05  0:00:23  313
  4107  1.2181e-03  2.6226e-04  9.1828e-05  1.1905e-03  1.4310e-04  7.1871e-05  0:00:18  312
  4108  1.2029e-03  2.5754e-04  9.2514e-05  1.1753e-03  1.4436e-04  7.1791e-05  0:00:15  311
  4109  1.1877e-03  2.5192e-04  9.3416e-05  1.1601e-03  1.4560e-04  7.1721e-05  0:01:14  310
  4110  1.1728e-03  2.5253e-04  9.3619e-05  1.1454e-03  1.4680e-04  7.1678e-05  0:00:59  309
  4111  1.1583e-03  2.5338e-04  9.3339e-05  1.1309e-03  1.4798e-04  7.1654e-05  0:00:47  308
  4112  1.1445e-03  2.5959e-04  9.3209e-05  1.1171e-03  1.4911e-04  7.1615e-05  0:00:37  307

  iter  continuity  x-velocity  y-velocity      energy           k       omega     time/iter
  4113  1.1308e-03  2.6560e-04  9.3875e-05  1.1034e-03  1.5020e-04  7.1554e-05  0:00:30  306
  4114  1.1173e-03  2.6767e-04  9.4283e-05  1.0901e-03  1.5125e-04  7.1478e-05  0:00:24  305
  4115  1.1039e-03  2.6877e-04  9.4791e-05  1.0769e-03  1.5225e-04  7.1413e-05  0:00:19  304
  4116  1.0915e-03  2.7187e-04  9.5694e-05  1.0645e-03  1.5320e-04  7.1334e-05  0:00:15  303
  4117  1.0796e-03  2.7816e-04  9.6895e-05  1.0527e-03  1.5411e-04  7.1225e-05  0:00:12  302
  4118  1.0682e-03  2.9030e-04  9.7704e-05  1.0413e-03  1.5501e-04  7.1119e-05  0:00:10  301
  4119  1.0575e-03  3.0646e-04  9.9150e-05  1.0307e-03  1.5587e-04  7.1020e-05  0:01:08  300
  4120  1.0470e-03  3.1253e-04  9.9643e-05  1.0203e-03  1.5671e-04  7.0911e-05  0:00:54  299
  4121  1.0361e-03  3.1439e-04  1.0137e-04  1.0095e-03  1.5751e-04  7.0793e-05  0:00:43  298
  4122  1.0263e-03  3.1463e-04  1.0088e-04  9.9963e-04  1.5828e-04  7.0675e-05  0:00:34  297
  4123  1.0156e-03  3.0291e-04  9.9252e-05  9.8870e-04  1.5902e-04  7.0558e-05  0:00:27  296

  iter  continuity  x-velocity  y-velocity      energy           k       omega     time/iter
  4124  1.0063e-03  3.1068e-04  9.7817e-05  9.7917e-04  1.5973e-04  7.0405e-05  0:00:22  295
  4125  9.9851e-04  3.2758e-04  9.7616e-05  9.7112e-04  1.6042e-04  7.0261e-05  0:00:17  294
! 4125 solution is converged

> /plot/plot yes loading.txt yes no no absolute-pressure yes 1 0 upper-blade ()

> ;exit yes

> (cx-gui-do cx-set-list-tree-selections "NavigationPane*List_Tree1" (list "Results|Graphics|Contours"))
(cx-gui-do cx-set-list-tree-selections "NavigationPane*List_Tree1" (list "Results|Graphics|Contours"))
(cx-gui-do cx-activate-item "NavigationPane*List_Tree1")
(cx-gui-do cx-set-list-tree-selections "NavigationPane*List_Tree1" (list "Results|Graphics|Contours"))
(cx-gui-do cx-activate-item "Contours*PanelButtons*PushButton1(OK)")
Creating zone surface for fluid-9 zone
(cx-gui-do cx-activate-item "Contours*PanelButtons*PushButton2(Cancel)")
/exit y

Posting ANSYS Product Improvement Program performance data 
Done.
(cx-gui-do cx-activate-item "Question*OK")
