

Opening input/output transcript to file "E:\MATLAB\RANS_optimisation\fluent-20220719-160923-20000.trn".

              Welcome to ANSYS Fluent 2021 R2

              Copyright 1987-2021 ANSYS, Inc. All Rights Reserved.
              Unauthorized use, distribution or duplication is prohibited.
              This product is subject to U.S. laws governing export and re-export.
              For full Legal Notice, see documentation.

Build Time: May 28 2021 13:54:23 EDT  Build Id: 10201  
 

*********************************************
Info: Your license enables 4-way parallel execution.
For faster simulations, please start the application with the appropriate parallel options.
*********************************************


     --------------------------------------------------------------
     This is an academic version of ANSYS FLUENT. Usage of this product
     license is limited to the terms and conditions specified in your ANSYS
     license form, additional terms section.
     --------------------------------------------------------------
Host spawning Node 0 on machine "WL-CH-009" (win64).

-------------------------------------------------------------------------------
ID    Hostname   Core  O.S.         PID    Vendor                       
-------------------------------------------------------------------------------
n0    WL-CH-009  1/36  Windows-x64  14940  Intel(R) Xeon(R) W-2295      
host  WL-CH-009        Windows-x64  8568   Intel(R) Xeon(R) W-2295      

MPI Option Selected: intel
-------------------------------------------------------------------------------

Cleanup script file is E:\MATLAB\RANS_optimisation\cleanup-fluent-WL-CH-009-8568.bat

Posting ANSYS Product Improvement Program startup data
Done.

> Reading "E:/MATLAB/RANS_optimisation/matlab_mesh_blk1_12.msh"...
Buffering for file scan...

    4626 quadrilateral cells, zone  8.
    9154 2D interior faces, zone  2.
Warning: Reversing 98 faces, zone  2.
      45 2D pressure-inlet faces, zone  1.
Warning: Reversing 45 faces, zone  1.

Changing thread id 2 to 1
     105 2D pressure-outlet faces, zone  3.
Warning: Reversing 105 faces, zone  3.

Changing thread id 2 to 3
     105 2D pressure-outlet faces, zone  4.

Changing thread id 3 to 4
      39 2D pressure-outlet faces, zone  5.

Changing thread id 4 to 5
      98 2D wall faces, zone  6.
Warning: Reversing 98 faces, zone  6.

Changing thread id 5 to 6
    4822 nodes.

Building...
     mesh
       Clearing partially read grid.

Error at host: Build Grid: Aborted due to critical error.

==============================================================================

Node 0: Process 14940: Received signal SIGSEGV.

==============================================================================

999999: mpt_accept: error: accept failed: Invalid argument

999999: mpt_accept: error: accept failed: Invalid argument

999999: mpt_accept: error: accept failed: Invalid argument

999999: mpt_accept: error: accept failed: Invalid argument

999999: mpt_accept: error: accept failed: Invalid argument

999999: mpt_accept: error: accept failed: Invalid argument

999999: mpt_accept: error: accept failed: Invalid argument

999999: mpt_accept: error: accept failed: Invalid argument

999999: mpt_accept: error: accept failed: Invalid argument

999999: mpt_accept: error: accept failed: Invalid argument

999999: mpt_accept: error: accept failed: Invalid argument

999999: mpt_accept: error: accept failed: Invalid argument

999999: mpt_accept: error: accept failed: Invalid argument

999999: mpt_accept: error: accept failed: Invalid argument

999999: mpt_accept: error: accept failed: Invalid argument

999999: mpt_accept: error: accept failed: Invalid argument

999999: mpt_accept: error: accept failed: Invalid argument

999999: mpt_accept: error: accept failed: Invalid argument

999999: mpt_accept: error: accept failed: Invalid argument

999999: mpt_accept: error: accept failed: Invalid argument

999999: mpt_accept: error: accept failed: Invalid argument

999999: mpt_accept: error: accept failed: Invalid argument

999999: mpt_accept: error: accept failed: Invalid argument

999999: mpt_accept: error: accept failed: Invalid argument

999999: mpt_accept: error: accept failed: Invalid argument

999999: mpt_accept: error: accept failed: Invalid argument

999999: mpt_accept: error: accept failed: Invalid argument

999999: mpt_accept: error: accept failed: Invalid argument

999999: mpt_accept: error: accept failed: Invalid argument

999999: mpt_accept: error: accept failed: Invalid argument

999999: mpt_accept: error: accept failed: Invalid argument

999999: mpt_accept: error: accept failed: Invalid argument

999999: mpt_accept: error: accept failed: Invalid argument

999999: mpt_accept: error: accept failed: Invalid argument

999999: mpt_accept: error: accept failed: Invalid argument

999999: mpt_accept: error: accept failed: Invalid argument

999999: mpt_accept: error: accept failed: Invalid argument

999999: mpt_accept: error: accept failed: Invalid argument

999999: mpt_accept: error: accept failed: Invalid argument

999999: mpt_accept: error: accept failed: Invalid argument

999999: mpt_accept: error: accept failed: Invalid argument

999999: mpt_accept: error: accept failed: Invalid argument

999999: mpt_accept: error: accept failed: Invalid argument

999999: mpt_accept: error: accept failed: Invalid argument

999999: mpt_accept: error: accept failed: Invalid argument

999999: mpt_accept: error: accept failed: Invalid argument

999999: mpt_accept: error: accept failed: Invalid argument

999999: mpt_accept: error: accept failed: Invalid argument

999999: mpt_accept: error: accept failed: Invalid argument

999999: mpt_accept: error: accept failed: Invalid argument

999999: mpt_accept: error: accept failed: Invalid argument

999999: mpt_accept: error: accept failed: Invalid argument

999999: mpt_accept: error: accept failed: Invalid argument

999999: mpt_accept: error: accept failed: Invalid argument

999999: mpt_accept: error: accept failed: Invalid argument

999999: mpt_accept: error: accept failed: Invalid argument

999999: mpt_accept: error: accept failed: Invalid argument

999999: mpt_accept: error: accept failed: Invalid argument

999999: mpt_accept: error: accept failed: Invalid argument

999999: mpt_accept: error: accept failed: Invalid argument

999999: mpt_accept: error: accept failed: Invalid argument

999999: mpt_accept: error: accept failed: Invalid argument

999999: mpt_accept: error: accept failed: Invalid argument

999999: mpt_accept: error: accept failed: Invalid argument

999999: mpt_accept: error: accept failed: Invalid argument

999999: mpt_accept: error: accept failed: Invalid argument

999999: mpt_accept: error: accept failed: Invalid argument

999999: mpt_accept: error: accept failed: Invalid argument

999999: mpt_accept: error: accept failed: Invalid argument

999999: mpt_accept: error: accept failed: Invalid argument

999999: mpt_accept: error: accept failed: Invalid argument

999999: mpt_accept: error: accept failed: Invalid argument

999999: mpt_accept: error: accept failed: Invalid argument

999999: mpt_accept: error: accept failed: Invalid argument

999999: mpt_accept: error: accept failed: Invalid argument

999999: mpt_accept: error: accept failed: Invalid argument

999999: mpt_accept: error: accept failed: Invalid argument

999999: mpt_accept: error: accept failed: Invalid argument

999999: mpt_accept: error: accept failed: Invalid argument

999999: mpt_accept: error: accept failed: Invalid argument

999999: mpt_accept: error: accept failed: Invalid argument

999999: mpt_accept: error: accept failed: Invalid argument

999999: mpt_accept: error: accept failed: Invalid argument

999999: mpt_accept: error: accept failed: Invalid argument

999999: mpt_accept: error: accept failed: Invalid argument

999999: mpt_accept: error: accept failed: Invalid argument

999999: mpt_accept: error: accept failed: Invalid argument

999999: mpt_accept: error: accept failed: Invalid argument

999999: mpt_accept: error: accept failed: Invalid argument

999999: mpt_accept: error: accept failed: Invalid argument

999999: mpt_accept: error: accept failed: Invalid argument

999999: mpt_accept: error: accept failed: Invalid argument

999999: mpt_accept: error: accept failed: Invalid argument

999999: mpt_accept: error: accept failed: Invalid argument

999999: mpt_accept: error: accept failed: Invalid argument

999999: mpt_accept: error: accept failed: Invalid argument

999999: mpt_accept: error: accept failed: Invalid argument

999999: mpt_accept: error: accept failed: Invalid argument

999999: mpt_accept: error: accept failed: Invalid argument

999999: mpt_accept: error: accept failed: Invalid argument

999999: mpt_accept: error: accept failed: Invalid argument

999999: mpt_accept: error: accept failed: Invalid argument

999999: mpt_accept: error: accept failed: Invalid argument

999999: mpt_accept: error: accept failed: Invalid argument

999999: mpt_accept: error: accept failed: Invalid argument

999999: mpt_accept: error: accept failed: Invalid argument

999999: mpt_accept: error: accept failed: Invalid argument

999999: mpt_accept: error: accept failed: Invalid argument

999999: mpt_accept: error: accept failed: Invalid argument

999999: mpt_accept: error: accept failed: Invalid argument

999999: mpt_accept: error: accept failed: Invalid argument

999999: mpt_accept: error: accept failed: Invalid argument

999999: mpt_accept: error: accept failed: Invalid argument

999999: mpt_accept: error: accept failed: Invalid argument

999999: mpt_accept: error: accept failed: Invalid argument

999999: mpt_accept: error: accept failed: Invalid argument

999999: mpt_accept: error: accept failed: Invalid argument

999999: mpt_accept: error: accept failed: Invalid argument

999999: mpt_accept: error: accept failed: Invalid argument

999999: mpt_accept: error: accept failed: Invalid argument

999999: mpt_accept: error: accept failed: Invalid argument

999999: mpt_accept: error: accept failed: Invalid argument

999999: mpt_accept: error: accept failed: Invalid argument

999999: mpt_accept: error: accept failed: Invalid argument

999999: mpt_accept: error: accept failed: Invalid argument

999999: mpt_accept: error: accept failed: Invalid argument

999999: mpt_accept: error: accept failed: Invalid argument

999999: mpt_accept: error: accept failed: Invalid argument

999999: mpt_accept: error: accept failed: Invalid argument

999999: mpt_accept: error: accept failed: Invalid argument

999999: mpt_accept: error: accept failed: Invalid argument

999999: mpt_accept: error: accept failed: Invalid argument

999999: mpt_accept: error: accept failed: Invalid argument

999999: mpt_accept: error: accept failed: Invalid argument

999999: mpt_accept: error: accept failed: Invalid argument

999999: mpt_accept: error: accept failed: Invalid argument

999999: mpt_accept: error: accept failed: Invalid argument

999999: mpt_accept: error: accept failed: Invalid argument

999999: mpt_accept: error: accept failed: Invalid argument

999999: mpt_accept: error: accept failed: Invalid argument

999999: mpt_accept: error: accept failed: Invalid argument

999999: mpt_accept: error: accept failed: Invalid argument

999999: mpt_accept: error: accept failed: Invalid argument

999999: mpt_accept: error: accept failed: Invalid argument

999999: mpt_accept: error: accept failed: Invalid argument

999999: mpt_accept: error: accept failed: Invalid argument

999999: mpt_accept: error: accept failed: Invalid argument

999999: mpt_accept: error: accept failed: Invalid argument

999999: mpt_accept: error: accept failed: Invalid argument

999999: mpt_accept: error: accept failed: Invalid argument

999999: mpt_accept: error: accept failed: Invalid argument

999999: mpt_accept: error: accept failed: Invalid argument

999999: mpt_accept: error: accept failed: Invalid argument

999999: mpt_accept: error: accept failed: Invalid argument

999999: mpt_accept: error: accept failed: Invalid argument

999999: mpt_accept: error: accept failed: Invalid argument

999999: mpt_accept: error: accept failed: Invalid argument

999999: mpt_accept: error: accept failed: Invalid argument

999999: mpt_accept: error: accept failed: Invalid argument

999999: mpt_accept: error: accept failed: Invalid argument

999999: mpt_accept: error: accept failed: Invalid argument

999999: mpt_accept: error: accept failed: Invalid argument

999999: mpt_accept: error: accept failed: Invalid argument

999999: mpt_accept: error: accept failed: Invalid argument

999999: mpt_accept: error: accept failed: Invalid argument

999999: mpt_accept: error: accept failed: Invalid argument

999999: mpt_accept: error: accept failed: Invalid argument

999999: mpt_accept: error: accept failed: Invalid argument

999999: mpt_accept: error: accept failed: Invalid argument

999999: mpt_accept: error: accept failed: Invalid argument

999999: mpt_accept: error: accept failed: Invalid argument

999999: mpt_accept: error: accept failed: Invalid argument

999999: mpt_accept: error: accept failed: Invalid argument

999999: mpt_accept: error: accept failed: Invalid argument

999999: mpt_accept: error: accept failed: Invalid argument

999999: mpt_accept: error: accept failed: Invalid argument

999999: mpt_accept: error: accept failed: Invalid argument

999999: mpt_accept: error: accept failed: Invalid argument

999999: mpt_accept: error: accept failed: Invalid argument

999999: mpt_accept: error: accept failed: Invalid argument

999999: mpt_accept: error: accept failed: Invalid argument

999999: mpt_accept: error: accept failed: Invalid argument

999999: mpt_accept: error: accept failed: Invalid argument

999999: mpt_accept: error: accept failed: Invalid argument

999999: mpt_accept: error: accept failed: Invalid argument

999999: mpt_accept: error: accept failed: Invalid argument

999999: mpt_accept: error: accept failed: Invalid argument

999999: mpt_accept: error: accept failed: Invalid argument

999999: mpt_accept: error: accept failed: Invalid argument

999999: mpt_accept: error: accept failed: Invalid argument

999999: mpt_accept: error: accept failed: Invalid argument

999999: mpt_accept: error: accept failed: Invalid argument

999999: mpt_accept: error: accept failed: Invalid argument

999999: mpt_accept: error: accept failed: Invalid argument

999999: mpt_accept: error: accept failed: Invalid argument

999999: mpt_accept: error: accept failed: Invalid argument

999999: mpt_accept: error: accept failed: Invalid argument

999999: mpt_accept: error: accept failed: Invalid argument

999999: mpt_accept: error: accept failed: Invalid argument

999999: mpt_accept: error: accept failed: Invalid argument

999999: mpt_accept: error: accept failed: Invalid argument

999999: mpt_accept: error: accept failed: Invalid argument

999999: mpt_accept: error: accept failed: Invalid argument

999999: mpt_accept: error: accept failed: Invalid argument

999999: mpt_accept: error: accept failed: Invalid argument

999999: mpt_accept: error: accept failed: Invalid argument

999999: mpt_accept: error: accept failed: Invalid argument

999999: mpt_accept: error: accept failed: Invalid argument

999999: mpt_accept: error: accept failed: Invalid argument

999999: mpt_accept: error: accept failed: Invalid argument

999999: mpt_accept: error: accept failed: Invalid argument

999999: mpt_accept: error: accept failed: Invalid argument

999999: mpt_accept: error: accept failed: Invalid argument

999999: mpt_accept: error: accept failed: Invalid argument

999999: mpt_accept: error: accept failed: Invalid argument

999999: mpt_accept: error: accept failed: Invalid argument

999999: mpt_accept: error: accept failed: Invalid argument

999999: mpt_accept: error: accept failed: Invalid argument

999999: mpt_accept: error: accept failed: Invalid argument

999999: mpt_accept: error: accept failed: Invalid argument

999999: mpt_accept: error: accept failed: Invalid argument

999999: mpt_accept: error: accept failed: Invalid argument

999999: mpt_accept: error: accept failed: Invalid argument

999999: mpt_accept: error: accept failed: Invalid argument

999999: mpt_accept: error: accept failed: Invalid argument

999999: mpt_accept: error: accept failed: Invalid argument

999999: mpt_accept: error: accept failed: Invalid argument

999999: mpt_accept: error: accept failed: Invalid argument

999999: mpt_accept: error: accept failed: Invalid argument

999999: mpt_accept: error: accept failed: Invalid argument

999999: mpt_accept: error: accept failed: Invalid argument

999999: mpt_accept: error: accept failed: Invalid argument

999999: mpt_accept: error: accept failed: Invalid argument

999999: mpt_accept: error: accept failed: Invalid argument

999999: mpt_accept: error: accept failed: Invalid argument

999999: mpt_accept: error: accept failed: Invalid argument

999999: mpt_accept: error: accept failed: Invalid argument

999999: mpt_accept: error: accept failed: Invalid argument

999999: mpt_accept: error: accept failed: Invalid argument

999999: mpt_accept: error: accept failed: Invalid argument

999999: mpt_accept: error: accept failed: Invalid argument

999999: mpt_accept: error: accept failed: Invalid argument

999999: mpt_accept: error: accept failed: Invalid argument

999999: mpt_accept: error: accept failed: Invalid argument

999999: mpt_accept: error: accept failed: Invalid argument

999999: mpt_accept: error: accept failed: Invalid argument

999999: mpt_accept: error: accept failed: Invalid argument

999999: mpt_accept: error: accept failed: Invalid argument

999999: mpt_accept: error: accept failed: Invalid argument

999999: mpt_accept: error: accept failed: Invalid argument

999999: mpt_accept: error: accept failed: Invalid argument

999999: mpt_accept: error: accept failed: Invalid argument

999999: mpt_accept: error: accept failed: Invalid argument

999999: mpt_accept: error: accept failed: Invalid argument

999999: mpt_accept: error: accept failed: Invalid argument

999999: mpt_accept: error: accept failed: Invalid argument

999999: mpt_accept: error: accept failed: Invalid argument

999999: mpt_accept: error: accept failed: Invalid argument

999999: mpt_accept: error: accept failed: Invalid argument

999999: mpt_accept: error: accept failed: Invalid argument

999999: mpt_accept: error: accept failed: Invalid argument

999999: mpt_accept: error: accept failed: Invalid argument

999999: mpt_accept: error: accept failed: Invalid argument

999999: mpt_accept: error: accept failed: Invalid argument

999999: mpt_accept: error: accept failed: Invalid argument

999999: mpt_accept: error: accept failed: Invalid argument

999999: mpt_accept: error: accept failed: Invalid argument

999999: mpt_accept: error: accept failed: Invalid argument

999999: mpt_accept: error: accept failed: Invalid argument

999999: mpt_accept: error: accept failed: Invalid argument

999999: mpt_accept: error: accept failed: Invalid argument

999999: mpt_accept: error: accept failed: Invalid argument

999999: mpt_accept: error: accept failed: Invalid argument

999999: mpt_accept: error: accept failed: Invalid argument

999999: mpt_accept: error: accept failed: Invalid argument

999999: mpt_accept: error: accept failed: Invalid argument

999999: mpt_accept: error: accept failed: Invalid argument

999999: mpt_accept: error: accept failed: Invalid argument

999999: mpt_accept: error: accept failed: Invalid argument

999999: mpt_accept: error: accept failed: Invalid argument

999999: mpt_accept: error: accept failed: Invalid argument

999999: mpt_accept: error: accept failed: Invalid argument

999999: mpt_accept: error: accept failed: Invalid argument

999999: mpt_accept: error: accept failed: Invalid argument

999999: mpt_accept: error: accept failed: Invalid argument

999999: mpt_accept: error: accept failed: Invalid argument

999999: mpt_accept: error: accept failed: Invalid argument

999999: mpt_accept: error: accept failed: Invalid argument

999999: mpt_accept: error: accept failed: Invalid argument

999999: mpt_accept: error: accept failed: Invalid argument

999999: mpt_accept: error: accept failed: Invalid argument

999999: mpt_accept: error: accept failed: Invalid argument

999999: mpt_accept: error: accept failed: Invalid argument

999999: mpt_accept: error: accept failed: Invalid argument

999999: mpt_accept: error: accept failed: Invalid argument

999999: mpt_accept: error: accept failed: Invalid argument

999999: mpt_accept: error: accept failed: Invalid argument

999999: mpt_accept: error: accept failed: Invalid argument

999999: mpt_accept: error: accept failed: Invalid argument

999999: mpt_accept: error: accept failed: Invalid argument

999999: mpt_accept: error: accept failed: Invalid argument

999999: mpt_accept: error: accept failed: Invalid argument

999999: mpt_accept: error: accept failed: Invalid argument

999999: mpt_accept: error: accept failed: Invalid argument

999999: mpt_accept: error: accept failed: Invalid argument

999999: mpt_accept: error: accept failed: Invalid argument

999999: mpt_accept: error: accept failed: Invalid argument

999999: mpt_accept: error: accept failed: Invalid argument

999999: mpt_accept: error: accept failed: Invalid argument

999999: mpt_accept: error: accept failed: Invalid argument

999999: mpt_accept: error: accept failed: Invalid argument

999999: mpt_accept: error: accept failed: Invalid argument

999999: mpt_accept: error: accept failed: Invalid argument

999999: mpt_accept: error: accept failed: Invalid argument

999999: mpt_accept: error: accept failed: Invalid argument

999999: mpt_accept: error: accept failed: Invalid argument

999999: mpt_accept: error: accept failed: Invalid argument

999999: mpt_accept: error: accept failed: Invalid argument

999999: mpt_accept: error: accept failed: Invalid argument

999999: mpt_accept: error: accept failed: Invalid argument

999999: mpt_accept: error: accept failed: Invalid argument

999999: mpt_accept: error: accept failed: Invalid argument

999999: mpt_accept: error: accept failed: Invalid argument

999999: mpt_accept: error: accept failed: Invalid argument

999999: mpt_accept: error: accept failed: Invalid argument

999999: mpt_accept: error: accept failed: Invalid argument

999999: mpt_accept: error: accept failed: Invalid argument

999999: mpt_accept: error: accept failed: Invalid argument

999999: mpt_accept: error: accept failed: Invalid argument

999999: mpt_accept: error: accept failed: Invalid argument

999999: mpt_accept: error: accept failed: Invalid argument

999999: mpt_accept: error: accept failed: Invalid argument

999999: mpt_accept: error: accept failed: Invalid argument

999999: mpt_accept: error: accept failed: Invalid argument

999999: mpt_accept: error: accept failed: Invalid argument

999999: mpt_accept: error: accept failed: Invalid argument

999999: mpt_accept: error: accept failed: Invalid argument

999999: mpt_accept: error: accept failed: Invalid argument

999999: mpt_accept: error: accept failed: Invalid argument

999999: mpt_accept: error: accept failed: Invalid argument

999999: mpt_accept: error: accept failed: Invalid argument

999999: mpt_accept: error: accept failed: Invalid argument

999999: mpt_accept: error: accept failed: Invalid argument

999999: mpt_accept: error: accept failed: Invalid argument

999999: mpt_accept: error: accept failed: Invalid argument

999999: mpt_accept: error: accept failed: Invalid argument

999999: mpt_accept: error: accept failed: Invalid argument

999999: mpt_accept: error: accept failed: Invalid argument

999999: mpt_accept: error: accept failed: Invalid argument

999999: mpt_accept: error: accept failed: Invalid argument

999999: mpt_accept: error: accept failed: Invalid argument

999999: mpt_accept: error: accept failed: Invalid argument

999999: mpt_accept: error: accept failed: Invalid argument

999999: mpt_accept: error: accept failed: Invalid argument

999999: mpt_accept: error: accept failed: Invalid argument

999999: mpt_accept: error: accept failed: Invalid argument

999999: mpt_accept: error: accept failed: Invalid argument

999999: mpt_accept: error: accept failed: Invalid argument

999999: mpt_accept: error: accept failed: Invalid argument

999999: mpt_accept: error: accept failed: Invalid argument

999999: mpt_accept: error: accept failed: Invalid argument

999999: mpt_accept: error: accept failed: Invalid argument

999999: mpt_accept: error: accept failed: Invalid argument

999999: mpt_accept: error: accept failed: Invalid argument

999999: mpt_accept: error: accept failed: Invalid argument

999999: mpt_accept: error: accept failed: Invalid argument

999999: mpt_accept: error: accept failed: Invalid argument

999999: mpt_accept: error: accept failed: Invalid argument

999999: mpt_accept: error: accept failed: Invalid argument

999999: mpt_accept: error: accept failed: Invalid argument

999999: mpt_accept: error: accept failed: Invalid argument

999999: mpt_accept: error: accept failed: Invalid argument

999999: mpt_accept: error: accept failed: Invalid argument

999999: mpt_accept: error: accept failed: Invalid argument

999999: mpt_accept: error: accept failed: Invalid argument

999999: mpt_accept: error: accept failed: Invalid argument

999999: mpt_accept: error: accept failed: Invalid argument

999999: mpt_accept: error: accept failed: Invalid argument

999999: mpt_accept: error: accept failed: Invalid argument

999999: mpt_accept: error: accept failed: Invalid argument

999999: mpt_accept: error: accept failed: Invalid argument

999999: mpt_accept: error: accept failed: Invalid argument

999999: mpt_accept: error: accept failed: Invalid argument

999999: mpt_accept: error: accept failed: Invalid argument

999999: mpt_accept: error: accept failed: Invalid argument

999999: mpt_accept: error: accept failed: Invalid argument

999999: mpt_accept: error: accept failed: Invalid argument

999999: mpt_accept: error: accept failed: Invalid argument

999999: mpt_accept: error: accept failed: Invalid argument

999999: mpt_accept: error: accept failed: Invalid argument

999999: mpt_accept: error: accept failed: Invalid argument

999999: mpt_accept: error: accept failed: Invalid argument

999999: mpt_accept: error: accept failed: Invalid argument

999999: mpt_accept: error: accept failed: Invalid argument

999999: mpt_accept: error: accept failed: Invalid argument

999999: mpt_accept: error: accept failed: Invalid argument

999999: mpt_accept: error: accept failed: Invalid argument

999999: mpt_accept: error: accept failed: Invalid argument

999999: mpt_accept: error: accept failed: Invalid argument

999999: mpt_accept: error: accept failed: Invalid argument

999999: mpt_accept: error: accept failed: Invalid argument

999999: mpt_accept: error: accept failed: Invalid argument

999999: mpt_accept: error: accept failed: Invalid argument

999999: mpt_accept: error: accept failed: Invalid argument

999999: mpt_accept: error: accept failed: Invalid argument

999999: mpt_accept: error: accept failed: Invalid argument

999999: mpt_accept: error: accept failed: Invalid argument

999999: mpt_accept: error: accept failed: Invalid argument

999999: mpt_accept: error: accept failed: Invalid argument

999999: mpt_accept: error: accept failed: Invalid argument

999999: mpt_accept: error: accept failed: Invalid argument

999999: mpt_accept: error: accept failed: Invalid argument

999999: mpt_accept: error: accept failed: Invalid argument

999999: mpt_accept: error: accept failed: Invalid argument

999999: mpt_accept: error: accept failed: Invalid argument

999999: mpt_accept: error: accept failed: Invalid argument

999999: mpt_accept: error: accept failed: Invalid argument

999999: mpt_accept: error: accept failed: Invalid argument

999999: mpt_accept: error: accept failed: Invalid argument

999999: mpt_accept: error: accept failed: Invalid argument

999999: mpt_accept: error: accept failed: Invalid argument

999999: mpt_accept: error: accept failed: Invalid argument

999999: mpt_accept: error: accept failed: Invalid argument

999999: mpt_accept: error: accept failed: Invalid argument

999999: mpt_accept: error: accept failed: Invalid argument

999999: mpt_accept: error: accept failed: Invalid argument

999999: mpt_accept: error: accept failed: Invalid argument

999999: mpt_accept: error: accept failed: Invalid argument

999999: mpt_accept: error: accept failed: Invalid argument

999999: mpt_accept: error: accept failed: Invalid argument

999999: mpt_accept: error: accept failed: Invalid argument

999999: mpt_accept: error: accept failed: Invalid argument

999999: mpt_accept: error: accept failed: Invalid argument

999999: mpt_accept: error: accept failed: Invalid argument

999999: mpt_accept: error: accept failed: Invalid argument

999999: mpt_accept: error: accept failed: Invalid argument

999999: mpt_accept: error: accept failed: Invalid argument

999999: mpt_accept: error: accept failed: Invalid argument

999999: mpt_accept: error: accept failed: Invalid argument

999999: mpt_accept: error: accept failed: Invalid argument

999999: mpt_accept: error: accept failed: Invalid argument

999999: mpt_accept: error: accept failed: Invalid argument

999999: mpt_accept: error: accept failed: Invalid argument

999999: mpt_accept: error: accept failed: Invalid argument

999999: mpt_accept: error: accept failed: Invalid argument

999999: mpt_accept: error: accept failed: Invalid argument

999999: mpt_accept: error: accept failed: Invalid argument

999999: mpt_accept: error: accept failed: Invalid argument

999999: mpt_accept: error: accept failed: Invalid argument

999999: mpt_accept: error: accept failed: Invalid argument

999999: mpt_accept: error: accept failed: Invalid argument

999999: mpt_accept: error: accept failed: Invalid argument

999999: mpt_accept: error: accept failed: Invalid argument

999999: mpt_accept: error: accept failed: Invalid argument

999999: mpt_accept: error: accept failed: Invalid argument

999999: mpt_accept: error: accept failed: Invalid argument

999999: mpt_accept: error: accept failed: Invalid argument

999999: mpt_accept: error: accept failed: Invalid argument

999999: mpt_accept: error: accept failed: Invalid argument

999999: mpt_accept: error: accept failed: Invalid argument

999999: mpt_accept: error: accept failed: Invalid argument

999999: mpt_accept: error: accept failed: Invalid argument

999999: mpt_accept: error: accept failed: Invalid argument

999999: mpt_accept: error: accept failed: Invalid argument

999999: mpt_accept: error: accept failed: Invalid argument

999999: mpt_accept: error: accept failed: Invalid argument

999999: mpt_accept: error: accept failed: Invalid argument

999999: mpt_accept: error: accept failed: Invalid argument

999999: mpt_accept: error: accept failed: Invalid argument

999999: mpt_accept: error: accept failed: Invalid argument

999999: mpt_accept: error: accept failed: Invalid argument

999999: mpt_accept: error: accept failed: Invalid argument

999999: mpt_accept: error: accept failed: Invalid argument

999999: mpt_accept: error: accept failed: Invalid argument

999999: mpt_accept: error: accept failed: Invalid argument

999999: mpt_accept: error: accept failed: Invalid argument

999999: mpt_accept: error: accept failed: Invalid argument

999999: mpt_accept: error: accept failed: Invalid argument

999999: mpt_accept: error: accept failed: Invalid argument

999999: mpt_accept: error: accept failed: Invalid argument

999999: mpt_accept: error: accept failed: Invalid argument

999999: mpt_accept: error: accept failed: Invalid argument

999999: mpt_accept: error: accept failed: Invalid argument

999999: mpt_accept: error: accept failed: Invalid argument

999999: mpt_accept: error: accept failed: Invalid argument

999999: mpt_accept: error: accept failed: Invalid argument

999999: mpt_accept: error: accept failed: Invalid argument

999999: mpt_accept: error: accept failed: Invalid argument

999999: mpt_accept: error: accept failed: Invalid argument

999999: mpt_accept: error: accept failed: Invalid argument

999999: mpt_accept: error: accept failed: Invalid argument

999999: mpt_accept: error: accept failed: Invalid argument

999999: mpt_accept: error: accept failed: Invalid argument

999999: mpt_accept: error: accept failed: Invalid argument

999999: mpt_accept: error: accept failed: Invalid argument

999999: mpt_accept: error: accept failed: Invalid argument

999999: mpt_accept: error: accept failed: Invalid argument

999999: mpt_accept: error: accept failed: Invalid argument

999999: mpt_accept: error: accept failed: Invalid argument

999999: mpt_accept: error: accept failed: Invalid argument

999999: mpt_accept: error: accept failed: Invalid argument

999999: mpt_accept: error: accept failed: Invalid argument

999999: mpt_accept: error: accept failed: Invalid argument

999999: mpt_accept: error: accept failed: Invalid argument

999999: mpt_accept: error: accept failed: Invalid argument

999999: mpt_accept: error: accept failed: Invalid argument

999999: mpt_accept: error: accept failed: Invalid argument

999999: mpt_accept: error: accept failed: Invalid argument

999999: mpt_accept: error: accept failed: Invalid argument

999999: mpt_accept: error: accept failed: Invalid argument


