
              Welcome to ANSYS Fluent 2021 R2

              Copyright 1987-2021 ANSYS, Inc. All Rights Reserved.
              Unauthorized use, distribution or duplication is prohibited.
              This product is subject to U.S. laws governing export and re-export.
              For full Legal Notice, see documentation.

Build Time: May 28 2021 13:54:56 EDT  Build Id: 10201  
 

     --------------------------------------------------------------
     This is an academic version of ANSYS FLUENT. Usage of this product
     license is limited to the terms and conditions specified in your ANSYS
     license form, additional terms section.
     --------------------------------------------------------------
Host spawning Node 0 on machine "WL-CH-009" (win64).

-------------------------------------------------------------------------------
ID    Hostname   Core   O.S.         PID    Vendor                       
-------------------------------------------------------------------------------
n31   WL-CH-009  32/36  Windows-x64  36420  Intel(R) Xeon(R) W-2295      
n30   WL-CH-009  31/36  Windows-x64  33204  Intel(R) Xeon(R) W-2295      
n29   WL-CH-009  30/36  Windows-x64  8676   Intel(R) Xeon(R) W-2295      
n28   WL-CH-009  29/36  Windows-x64  18940  Intel(R) Xeon(R) W-2295      
n27   WL-CH-009  28/36  Windows-x64  22116  Intel(R) Xeon(R) W-2295      
n26   WL-CH-009  27/36  Windows-x64  37032  Intel(R) Xeon(R) W-2295      
n25   WL-CH-009  26/36  Windows-x64  14192  Intel(R) Xeon(R) W-2295      
n24   WL-CH-009  25/36  Windows-x64  41484  Intel(R) Xeon(R) W-2295      
n23   WL-CH-009  24/36  Windows-x64  28484  Intel(R) Xeon(R) W-2295      
n22   WL-CH-009  23/36  Windows-x64  39140  Intel(R) Xeon(R) W-2295      
n21   WL-CH-009  22/36  Windows-x64  41172  Intel(R) Xeon(R) W-2295      
n20   WL-CH-009  21/36  Windows-x64  32676  Intel(R) Xeon(R) W-2295      
n19   WL-CH-009  20/36  Windows-x64  43628  Intel(R) Xeon(R) W-2295      
n18   WL-CH-009  19/36  Windows-x64  40448  Intel(R) Xeon(R) W-2295      
n17   WL-CH-009  18/36  Windows-x64  39252  Intel(R) Xeon(R) W-2295      
n16   WL-CH-009  17/36  Windows-x64  32784  Intel(R) Xeon(R) W-2295      
n15   WL-CH-009  16/36  Windows-x64  44784  Intel(R) Xeon(R) W-2295      
n14   WL-CH-009  15/36  Windows-x64  14472  Intel(R) Xeon(R) W-2295      
n13   WL-CH-009  14/36  Windows-x64  39144  Intel(R) Xeon(R) W-2295      
n12   WL-CH-009  13/36  Windows-x64  29272  Intel(R) Xeon(R) W-2295      
-------------------------------------------------------------------------------
ID    Hostname   Core   O.S.         PID    Vendor                       
-------------------------------------------------------------------------------
n11   WL-CH-009  12/36  Windows-x64  28516  Intel(R) Xeon(R) W-2295      
n10   WL-CH-009  11/36  Windows-x64  24024  Intel(R) Xeon(R) W-2295      
n9    WL-CH-009  10/36  Windows-x64  41148  Intel(R) Xeon(R) W-2295      
n8    WL-CH-009  9/36   Windows-x64  12376  Intel(R) Xeon(R) W-2295      
n7    WL-CH-009  8/36   Windows-x64  37560  Intel(R) Xeon(R) W-2295      
n6    WL-CH-009  7/36   Windows-x64  24976  Intel(R) Xeon(R) W-2295      
n5    WL-CH-009  6/36   Windows-x64  5688   Intel(R) Xeon(R) W-2295      
n4    WL-CH-009  5/36   Windows-x64  14140  Intel(R) Xeon(R) W-2295      
n3    WL-CH-009  4/36   Windows-x64  40956  Intel(R) Xeon(R) W-2295      
n2    WL-CH-009  3/36   Windows-x64  42864  Intel(R) Xeon(R) W-2295      
n1    WL-CH-009  2/36   Windows-x64  19328  Intel(R) Xeon(R) W-2295      
n0*   WL-CH-009  1/36   Windows-x64  37028  Intel(R) Xeon(R) W-2295      
host  WL-CH-009         Windows-x64  26208  Intel(R) Xeon(R) W-2295      

MPI Option Selected: intel
Selected system interconnect: default
-------------------------------------------------------------------------------

Cleanup script file is E:\\MATLAB\\RANS_optimisation\\cleanup-fluent-WL-CH-009-26208.bat

Posting ANSYS Product Improvement Program startup data
Done.

Reading journal file E:\MATLAB\RANS_optimisation\run6\fluent_input.jou...

> /sync-chdir E:\MATLAB\RANS_optimisation\run6

> /file/read-case "grid.msh"
Reading "grid.msh"...

Buffering for file scan...

  112722 quadrilateral cells, zone  9.
  224998 2D interior faces, zone  2.
Warning: Reversing 238 faces, zone  2.
     237 2D pressure-inlet faces, zone  3.
Warning: Reversing 237 faces, zone  3.
     477 2D pressure-outlet faces, zone  4.
Warning: Reversing 477 faces, zone  4.
     477 2D pressure-outlet faces, zone  5.
     207 2D pressure-outlet faces, zone  6.
     254 2D wall faces, zone  7.
Warning: Reversing 15 faces, zone  7.
     252 2D wall faces, zone  8.
Warning: Reversing 223 faces, zone  8.
  113674 nodes.

Building...
     mesh
	auto partitioning mesh by Metis (fast),
	distributing mesh
		parts................................,
		faces................................,
		nodes................................,
		cells................................,
        bandwidth reduction using Reverse Cuthill-McKee: 2716/83 = 32.7229
     materials,
     interface,
     domains,
     zones,
	fluid-9
	wall-8
	wall-7
	pressure-outlet-6
	pressure-outlet-5
	pressure-outlet-4
	pressure-inlet-3
	interior-2
     parallel,
Done.

Preparing mesh for display...
Done.
 

> /define/boundary-conditions/modify-zones/zone-name 3 inlet 

> /define/boundary-conditions/modify-zones/zone-name 4 upper 

> /define/boundary-conditions/modify-zones/zone-name 5 lower 

> /define/boundary-conditions/modify-zones/zone-name 6 outlet

> /define/boundary-conditions/modify-zones/zone-name 7 upper-blade

> /define/boundary-conditions/modify-zones/zone-name 8 lower-blade

> /define/materials/change-create air air air is a fluid
yes 
Density
ideal-gas no data required.

yes 
Cp (Specific Heat)
constant 1005 
yes 
Thermal Conductivity
expression "DynamicViscosity*1005 [J/(kg K)]/0.72"
 yes 
Viscosity
sutherland three-coefficient-method 5.83247e-04 273 110.4 
no no no

Note: Enabling energy equation as required by material density method.

> /define/operating-conditions/operating-pressure 0

> /define/models/viscous/kw-sst? yes

> /define/boundary-conditions/zone-type inlet pressure-inlet 

> /define/boundary-conditions/pressure-inlet (inlet)
inlet yes no 74575.2 no 46984 no 300 no yes no no yes 0.5 1

> /define/boundary-conditions/zone-type outlet pressure-outlet 

> /define/boundary-conditions/bc-settings/pressure-outlet 0. 65 

> /define/boundary-conditions/pressure-outlet (outlet upper lower)
outlet yes no 46984 no 300 no yes no no yes 0.5 1 yes no no

> /define/boundary-conditions/copy-bc outlet (upper lower)Copy outlet boundary conditions to lower
Copy outlet boundary conditions to upper


> /define/boundary-conditions/wall (upper-blade lower-blade)
upper-blade 0 no 0 no no no 0 no no no no 0 no 0.5 no 1

> /define/boundary-conditions/copy-bc upper-blade (lower-blade)Copy upper-blade boundary conditions to lower-blade


> /define/models/solver/densit-based-implicit yes

> /file/read-data E:\MATLAB\RANS_optimisation\clean.dat

Reading "E:\MATLAB\RANS_optimisation\clean.dat"...



Parallel variables...
Done.

> ;/solve/initialize/initialize-flow
;/solve/initialize/compute-defaults/pressure-inlet inlet
;/solve/initialize/initialize-flow yes
;/solve/initialize/hyb-initialization
/solve/iterate 2000

  iter  continuity  x-velocity  y-velocity      energy           k       omega     time/iter
  2419  9.9521e-04  3.5719e-04  6.8654e-05  9.7828e-04  1.7105e-04  4.2984e-05  0:00:00 2000
  2420  8.9053e-02  5.8402e-02  5.4457e-02  8.9058e-02  4.0202e-03  1.1183e-02  0:00:00 1999
  2421  7.3285e-02  4.3829e-02  5.2093e-02  7.3634e-02  3.8420e-03  9.3341e-03  0:00:00 1998
  2422  5.6889e-02  3.0725e-02  4.9545e-02  5.6979e-02  3.6700e-03  7.4774e-03  0:00:00 1997
  2423  4.4014e-02  2.3512e-02  4.2547e-02  4.3626e-02  3.4979e-03  6.1126e-03  0:00:00 1996
  2424  3.5191e-02  1.9958e-02  3.4289e-02  3.4595e-02  3.3241e-03  5.6939e-03  0:00:00 1995
  2425  2.9324e-02  1.7936e-02  2.6922e-02  2.8809e-02  3.1491e-03  5.3156e-03  0:00:00 1994
  2426  2.5547e-02  1.6436e-02  2.1144e-02  2.5231e-02  2.9766e-03  4.8292e-03  0:00:00 1993
  2427  2.3237e-02  1.5119e-02  1.6960e-02  2.3109e-02  2.8064e-03  4.3045e-03  0:00:00 1992
  2428  2.1746e-02  1.3857e-02  1.4133e-02  2.1752e-02  2.6461e-03  3.8498e-03  0:33:11 1991
  2429  2.0570e-02  1.2607e-02  1.2332e-02  2.0656e-02  2.4976e-03  3.3836e-03  0:26:32 1990

  iter  continuity  x-velocity  y-velocity      energy           k       omega     time/iter
  2430  1.9450e-02  1.1365e-02  1.1210e-02  1.9573e-02  2.3609e-03  2.9548e-03  0:21:13 1989
  2431  1.8298e-02  1.0164e-02  1.0466e-02  1.8427e-02  2.2383e-03  2.6155e-03  0:16:58 1988
  2432  1.7126e-02  9.0339e-03  9.9021e-03  1.7239e-02  2.1304e-03  2.4053e-03  0:13:34 1987
  2433  1.5978e-02  8.0058e-03  9.3978e-03  1.6058e-02  2.0357e-03  2.2581e-03  0:10:51 1986
  2434  1.4916e-02  7.1090e-03  8.9041e-03  1.4953e-02  1.9515e-03  2.1479e-03  0:08:40 1985
  2435  1.3931e-02  6.3790e-03  8.4025e-03  1.3917e-02  1.8765e-03  2.0779e-03  0:06:56 1984
  2436  1.3033e-02  5.8421e-03  7.8907e-03  1.2963e-02  1.8098e-03  2.0511e-03  0:05:33 1983
  2437  1.2226e-02  5.5187e-03  7.3829e-03  1.2102e-02  1.7495e-03  2.0290e-03  0:04:26 1982
  2438  1.1524e-02  5.3908e-03  6.8939e-03  1.1347e-02  1.6955e-03  2.0141e-03  0:10:09 1981
  2439  1.0929e-02  5.4101e-03  6.4444e-03  1.0704e-02  1.6475e-03  2.0075e-03  0:08:07 1980
  2440  1.0442e-02  5.5118e-03  6.0485e-03  1.0175e-02  1.6038e-03  2.0019e-03  0:06:29 1979

  iter  continuity  x-velocity  y-velocity      energy           k       omega     time/iter
  2441  1.0072e-02  5.6428e-03  5.7125e-03  9.7700e-03  1.5640e-03  1.9873e-03  0:05:11 1978
  2442  9.8441e-03  5.7633e-03  5.4403e-03  9.5119e-03  1.5282e-03  1.9704e-03  0:04:09 1977
  2443  9.7888e-03  5.8508e-03  5.2330e-03  9.4326e-03  1.4954e-03  1.9515e-03  0:03:19 1976
  2444  9.9503e-03  5.8973e-03  5.0811e-03  9.5764e-03  1.4653e-03  1.9342e-03  0:02:39 1975
  2445  1.0358e-02  5.9054e-03  4.9726e-03  9.9723e-03  1.4383e-03  1.9124e-03  0:02:07 1974
  2446  1.1015e-02  5.8799e-03  4.8970e-03  1.0624e-02  1.4146e-03  1.8834e-03  0:01:42 1973
  2447  1.1894e-02  5.8341e-03  4.8413e-03  1.1500e-02  1.3936e-03  1.8473e-03  0:01:21 1972
  2448  1.2938e-02  5.7777e-03  4.7821e-03  1.2544e-02  1.3762e-03  1.8144e-03  0:07:39 1971
  2449  1.4100e-02  5.7178e-03  4.7083e-03  1.3709e-02  1.3608e-03  1.7849e-03  0:06:07 1970
  2450  1.5340e-02  5.6619e-03  4.6173e-03  1.4953e-02  1.3483e-03  1.7568e-03  0:04:54 1969
  2451  1.6593e-02  5.6160e-03  4.5107e-03  1.6210e-02  1.3389e-03  1.7322e-03  0:03:55 1968

  iter  continuity  x-velocity  y-velocity      energy           k       omega     time/iter
  2452  1.7795e-02  5.5876e-03  4.3808e-03  1.7418e-02  1.3307e-03  1.7109e-03  0:03:08 1967
  2453  1.8894e-02  5.5748e-03  4.2313e-03  1.8524e-02  1.3242e-03  1.6945e-03  0:02:30 1966
  2454  1.9860e-02  5.5776e-03  4.0612e-03  1.9500e-02  1.3184e-03  1.6792e-03  0:02:00 1965
  2455  2.0718e-02  5.5966e-03  3.8778e-03  2.0368e-02  1.3134e-03  1.6704e-03  0:01:36 1964
  2456  2.1449e-02  5.6286e-03  3.6914e-03  2.1112e-02  1.3091e-03  1.6674e-03  0:01:17 1963
  2457  2.2042e-02  5.6693e-03  3.5058e-03  2.1718e-02  1.3056e-03  1.6685e-03  0:01:01 1962
  2458  2.2473e-02  5.7126e-03  3.3364e-03  2.2165e-02  1.3029e-03  1.6701e-03  0:07:21 1961
  2459  2.2715e-02  5.7558e-03  3.1833e-03  2.2424e-02  1.3013e-03  1.6757e-03  0:05:53 1960
  2460  2.2764e-02  5.7918e-03  3.0551e-03  2.2490e-02  1.3002e-03  1.6857e-03  0:04:42 1959
  2461  2.2649e-02  5.8123e-03  2.9503e-03  2.2391e-02  1.3005e-03  1.6943e-03  0:03:46 1958
  2462  2.2395e-02  5.8171e-03  2.8797e-03  2.2153e-02  1.3010e-03  1.7009e-03  0:03:00 1957

  iter  continuity  x-velocity  y-velocity      energy           k       omega     time/iter
  2463  2.2039e-02  5.8018e-03  2.8410e-03  2.1813e-02  1.3030e-03  1.7062e-03  0:02:24 1956
  2464  2.1602e-02  5.7743e-03  2.8230e-03  2.1392e-02  1.3055e-03  1.7115e-03  0:01:55 1955
  2465  2.1088e-02  5.7315e-03  2.8043e-03  2.0891e-02  1.3094e-03  1.7155e-03  0:01:32 1954
  2466  2.0487e-02  5.6718e-03  2.8028e-03  2.0303e-02  1.3134e-03  1.7179e-03  0:01:14 1953
  2467  1.9805e-02  5.6021e-03  2.8104e-03  1.9633e-02  1.3180e-03  1.7151e-03  0:07:29 1952
  2468  1.9060e-02  5.5185e-03  2.8304e-03  1.8898e-02  1.3227e-03  1.7119e-03  0:05:59 1951
  2469  1.8265e-02  5.4199e-03  2.8411e-03  1.8110e-02  1.3276e-03  1.7101e-03  0:04:47 1950
  2470  1.7435e-02  5.3120e-03  2.8429e-03  1.7286e-02  1.3328e-03  1.7025e-03  0:03:50 1949
  2471  1.6584e-02  5.1998e-03  2.8435e-03  1.6439e-02  1.3383e-03  1.6940e-03  0:03:04 1948
  2472  1.5728e-02  5.0879e-03  2.8428e-03  1.5585e-02  1.3446e-03  1.6782e-03  0:02:27 1947
  2473  1.4874e-02  4.9712e-03  2.8396e-03  1.4732e-02  1.3506e-03  1.6555e-03  0:01:57 1946

  iter  continuity  x-velocity  y-velocity      energy           k       omega     time/iter
  2474  1.4024e-02  4.8527e-03  2.8336e-03  1.3881e-02  1.3565e-03  1.6347e-03  0:01:34 1945
  2475  1.3186e-02  4.7360e-03  2.8215e-03  1.3040e-02  1.3614e-03  1.6215e-03  0:01:15 1944
  2476  1.2374e-02  4.6175e-03  2.8050e-03  1.2226e-02  1.3656e-03  1.6092e-03  0:01:00 1943
  2477  1.1607e-02  4.4953e-03  2.7796e-03  1.1455e-02  1.3697e-03  1.5961e-03  0:07:16 1942
  2478  1.0907e-02  4.3765e-03  2.7564e-03  1.0750e-02  1.3740e-03  1.5805e-03  0:05:49 1941
  2479  1.0274e-02  4.2574e-03  2.7337e-03  1.0114e-02  1.3781e-03  1.5607e-03  0:04:39 1940
  2480  9.7080e-03  4.1439e-03  2.7077e-03  9.5444e-03  1.3820e-03  1.5414e-03  0:03:43 1939
  2481  9.2180e-03  4.0366e-03  2.6778e-03  9.0515e-03  1.3868e-03  1.5239e-03  0:02:58 1938
  2482  8.7884e-03  3.9300e-03  2.6471e-03  8.6201e-03  1.3924e-03  1.5085e-03  0:02:23 1937
  2483  8.4229e-03  3.8308e-03  2.6163e-03  8.2536e-03  1.3988e-03  1.4961e-03  0:01:54 1936
  2484  8.1283e-03  3.7391e-03  2.5806e-03  7.9595e-03  1.4046e-03  1.4869e-03  0:01:31 1935

  iter  continuity  x-velocity  y-velocity      energy           k       omega     time/iter
  2485  7.9015e-03  3.6509e-03  2.5407e-03  7.7341e-03  1.4111e-03  1.4716e-03  0:01:13 1934
  2486  7.7442e-03  3.5687e-03  2.4967e-03  7.5799e-03  1.4181e-03  1.4594e-03  0:00:58 1933
  2487  7.6469e-03  3.4919e-03  2.4497e-03  7.4876e-03  1.4254e-03  1.4474e-03  0:07:13 1932
  2488  7.5975e-03  3.4274e-03  2.4034e-03  7.4442e-03  1.4333e-03  1.4360e-03  0:05:46 1931
  2489  7.5869e-03  3.3697e-03  2.3550e-03  7.4399e-03  1.4413e-03  1.4288e-03  0:04:37 1930
  2490  7.6053e-03  3.3144e-03  2.3080e-03  7.4643e-03  1.4499e-03  1.4193e-03  0:03:41 1929
  2491  7.6466e-03  3.2603e-03  2.2496e-03  7.5114e-03  1.4584e-03  1.4110e-03  0:02:57 1928
  2492  7.7039e-03  3.2064e-03  2.1895e-03  7.5739e-03  1.4673e-03  1.4029e-03  0:02:22 1927
  2493  7.7735e-03  3.1588e-03  2.1283e-03  7.6488e-03  1.4762e-03  1.3921e-03  0:01:53 1926
  2494  7.8544e-03  3.1250e-03  2.0692e-03  7.7352e-03  1.4853e-03  1.3824e-03  0:01:30 1925
  2495  7.9454e-03  3.1016e-03  2.0103e-03  7.8321e-03  1.4944e-03  1.3734e-03  0:01:12 1924

  iter  continuity  x-velocity  y-velocity      energy           k       omega     time/iter
  2496  8.0313e-03  3.0846e-03  1.9543e-03  7.9226e-03  1.5032e-03  1.3619e-03  0:00:58 1923
  2497  8.1206e-03  3.0687e-03  1.8998e-03  8.0163e-03  1.5117e-03  1.3536e-03  0:07:11 1922
  2498  8.2066e-03  3.0519e-03  1.8415e-03  8.1064e-03  1.5193e-03  1.3442e-03  0:05:44 1921
  2499  8.2851e-03  3.0435e-03  1.7910e-03  8.1888e-03  1.5271e-03  1.3332e-03  0:04:35 1920
  2500  8.3643e-03  3.0413e-03  1.7492e-03  8.2725e-03  1.5351e-03  1.3224e-03  0:03:40 1919
  2501  8.4187e-03  3.0331e-03  1.7055e-03  8.3298e-03  1.5429e-03  1.3101e-03  0:02:56 1918
  2502  8.4610e-03  3.0226e-03  1.6585e-03  8.3748e-03  1.5512e-03  1.2964e-03  0:02:21 1917
  2503  8.4940e-03  3.0123e-03  1.6183e-03  8.4105e-03  1.5596e-03  1.2823e-03  0:01:53 1916
  2504  8.5095e-03  2.9984e-03  1.5865e-03  8.4286e-03  1.5674e-03  1.2688e-03  0:01:30 1915
  2505  8.5166e-03  2.9881e-03  1.5592e-03  8.4384e-03  1.5751e-03  1.2564e-03  0:01:12 1914
  2506  8.5169e-03  2.9825e-03  1.5324e-03  8.4420e-03  1.5835e-03  1.2447e-03  0:07:20 1913

  iter  continuity  x-velocity  y-velocity      energy           k       omega     time/iter
  2507  8.4953e-03  2.9784e-03  1.5149e-03  8.4225e-03  1.5922e-03  1.2334e-03  0:05:52 1912
  2508  8.4597e-03  2.9724e-03  1.5015e-03  8.3887e-03  1.6005e-03  1.2212e-03  0:04:41 1911
  2509  8.4192e-03  2.9643e-03  1.4891e-03  8.3503e-03  1.6088e-03  1.2085e-03  0:03:45 1910
  2510  8.3747e-03  2.9573e-03  1.4843e-03  8.3079e-03  1.6174e-03  1.1952e-03  0:03:00 1909
  2511  8.3254e-03  2.9499e-03  1.4803e-03  8.2610e-03  1.6262e-03  1.1809e-03  0:02:24 1908
  2512  8.2677e-03  2.9425e-03  1.4761e-03  8.2052e-03  1.6353e-03  1.1674e-03  0:01:55 1907
  2513  8.2010e-03  2.9334e-03  1.4757e-03  8.1397e-03  1.6449e-03  1.1548e-03  0:07:53 1906
  2514  8.1333e-03  2.9253e-03  1.4780e-03  8.0732e-03  1.6547e-03  1.1436e-03  0:06:18 1905
  2515  8.0667e-03  2.9161e-03  1.4834e-03  8.0079e-03  1.6648e-03  1.1327e-03  0:05:03 1904
  2516  8.0034e-03  2.9073e-03  1.4930e-03  7.9457e-03  1.6755e-03  1.1207e-03  0:04:02 1903
  2517  7.9418e-03  2.8955e-03  1.4940e-03  7.8849e-03  1.6858e-03  1.1097e-03  0:03:13 1902

  iter  continuity  x-velocity  y-velocity      energy           k       omega     time/iter
  2518  7.8784e-03  2.8857e-03  1.5045e-03  7.8220e-03  1.6962e-03  1.0998e-03  0:02:35 1901
  2519  7.8228e-03  2.8756e-03  1.5079e-03  7.7668e-03  1.7070e-03  1.0898e-03  0:02:04 1900
  2520  7.7732e-03  2.8610e-03  1.5122e-03  7.7174e-03  1.7177e-03  1.0788e-03  0:01:39 1899
  2521  7.7188e-03  2.8435e-03  1.5114e-03  7.6625e-03  1.7278e-03  1.0689e-03  0:01:19 1898
  2522  7.6594e-03  2.8262e-03  1.5151e-03  7.6023e-03  1.7383e-03  1.0578e-03  0:07:23 1897
  2523  7.6008e-03  2.8057e-03  1.5197e-03  7.5425e-03  1.7479e-03  1.0473e-03  0:05:54 1896
  2524  7.5463e-03  2.7843e-03  1.5233e-03  7.4867e-03  1.7571e-03  1.0369e-03  0:04:43 1895
  2525  7.4946e-03  2.7629e-03  1.5215e-03  7.4335e-03  1.7660e-03  1.0266e-03  0:03:46 1894
  2526  7.4484e-03  2.7368e-03  1.5164e-03  7.3859e-03  1.7740e-03  1.0173e-03  0:03:01 1893
  2527  7.4079e-03  2.7077e-03  1.5095e-03  7.3437e-03  1.7813e-03  1.0094e-03  0:02:25 1892
  2528  7.3675e-03  2.6774e-03  1.5120e-03  7.3018e-03  1.7882e-03  1.0026e-03  0:01:56 1891

  iter  continuity  x-velocity  y-velocity      energy           k       omega     time/iter
  2529  7.3276e-03  2.6463e-03  1.5028e-03  7.2600e-03  1.7944e-03  9.9582e-04  0:01:32 1890
  2530  7.2900e-03  2.6178e-03  1.4917e-03  7.2209e-03  1.8001e-03  9.8886e-04  0:01:14 1889
  2531  7.2508e-03  2.5829e-03  1.4756e-03  7.1799e-03  1.8059e-03  9.8065e-04  0:00:59 1888
  2532  7.2200e-03  2.5490e-03  1.4580e-03  7.1475e-03  1.8111e-03  9.7331e-04  0:07:05 1887
  2533  7.1966e-03  2.5128e-03  1.4380e-03  7.1226e-03  1.8161e-03  9.6555e-04  0:05:40 1886
  2534  7.1688e-03  2.4757e-03  1.4186e-03  7.0936e-03  1.8215e-03  9.5732e-04  0:04:32 1885
  2535  7.1417e-03  2.4379e-03  1.3995e-03  7.0654e-03  1.8267e-03  9.4843e-04  0:03:37 1884
  2536  7.1135e-03  2.3983e-03  1.3783e-03  7.0362e-03  1.8312e-03  9.3943e-04  0:02:54 1883
  2537  7.0835e-03  2.3584e-03  1.3525e-03  7.0055e-03  1.8357e-03  9.3192e-04  0:02:19 1882
  2538  7.0534e-03  2.3197e-03  1.3259e-03  6.9750e-03  1.8407e-03  9.2472e-04  0:01:51 1881
  2539  7.0212e-03  2.2792e-03  1.2959e-03  6.9426e-03  1.8455e-03  9.1692e-04  0:01:29 1880

  iter  continuity  x-velocity  y-velocity      energy           k       omega     time/iter
  2540  6.9866e-03  2.2398e-03  1.2669e-03  6.9080e-03  1.8501e-03  9.0895e-04  0:01:11 1879
  2541  6.9494e-03  2.2008e-03  1.2381e-03  6.8710e-03  1.8549e-03  9.0088e-04  0:00:57 1878
  2542  6.9077e-03  2.1633e-03  1.2098e-03  6.8295e-03  1.8598e-03  8.9234e-04  0:07:01 1877
  2543  6.8557e-03  2.1269e-03  1.1810e-03  6.7778e-03  1.8645e-03  8.8398e-04  0:05:36 1876
  2544  6.7920e-03  2.0915e-03  1.1534e-03  6.7145e-03  1.8692e-03  8.7678e-04  0:04:29 1875
  2545  6.7185e-03  2.0578e-03  1.1285e-03  6.6414e-03  1.8737e-03  8.6870e-04  0:03:35 1874
  2546  6.6352e-03  2.0264e-03  1.1052e-03  6.5586e-03  1.8780e-03  8.6043e-04  0:02:52 1873
  2547  6.5429e-03  1.9983e-03  1.0841e-03  6.4667e-03  1.8823e-03  8.5199e-04  0:02:18 1872
  2548  6.4414e-03  1.9741e-03  1.0657e-03  6.3657e-03  1.8865e-03  8.4356e-04  0:01:50 1871
  2549  6.3302e-03  1.9516e-03  1.0507e-03  6.2548e-03  1.8905e-03  8.3621e-04  0:01:28 1870
  2550  6.2075e-03  1.9279e-03  1.0393e-03  6.1323e-03  1.8947e-03  8.2849e-04  0:01:10 1869

  iter  continuity  x-velocity  y-velocity      energy           k       omega     time/iter
  2551  6.0747e-03  1.9030e-03  1.0315e-03  5.9997e-03  1.8993e-03  8.2042e-04  0:00:56 1868
  2552  5.9356e-03  1.8787e-03  1.0260e-03  5.8605e-03  1.9033e-03  8.1251e-04  0:06:58 1867
  2553  5.7952e-03  1.8570e-03  1.0243e-03  5.7200e-03  1.9062e-03  8.0466e-04  0:05:34 1866
  2554  5.6565e-03  1.8379e-03  1.0262e-03  5.5812e-03  1.9085e-03  7.9659e-04  0:04:27 1865
  2555  5.5243e-03  1.8196e-03  1.0311e-03  5.4488e-03  1.9098e-03  7.8911e-04  0:03:34 1864
  2556  5.4014e-03  1.8027e-03  1.0387e-03  5.3256e-03  1.9100e-03  7.8152e-04  0:02:51 1863
  2557  5.2944e-03  1.7862e-03  1.0483e-03  5.2184e-03  1.9095e-03  7.7308e-04  0:02:17 1862
  2558  5.2067e-03  1.7705e-03  1.0597e-03  5.1303e-03  1.9083e-03  7.6478e-04  0:01:49 1861
  2559  5.1433e-03  1.7561e-03  1.0721e-03  5.0668e-03  1.9056e-03  7.5594e-04  0:01:27 1860
  2560  5.1185e-03  1.7426e-03  1.0851e-03  5.0423e-03  1.9009e-03  7.4663e-04  0:01:10 1859
  2561  5.1294e-03  1.7280e-03  1.0981e-03  5.0536e-03  1.8944e-03  7.3781e-04  0:00:56 1858

  iter  continuity  x-velocity  y-velocity      energy           k       omega     time/iter
  2562  5.1590e-03  1.7110e-03  1.1108e-03  5.0836e-03  1.8859e-03  7.2904e-04  0:00:45 1857
  2563  5.2225e-03  1.6953e-03  1.1229e-03  5.1478e-03  1.8757e-03  7.2015e-04  0:06:47 1856
  2564  5.3212e-03  1.6797e-03  1.1338e-03  5.2474e-03  1.8641e-03  7.1175e-04  0:05:25 1855
  2565  5.4515e-03  1.6638e-03  1.1434e-03  5.3786e-03  1.8507e-03  7.0348e-04  0:04:20 1854
  2566  5.6085e-03  1.6480e-03  1.1513e-03  5.5366e-03  1.8360e-03  6.9531e-04  0:03:28 1853
  2567  5.7922e-03  1.6332e-03  1.1580e-03  5.7213e-03  1.8203e-03  6.8853e-04  0:02:46 1852
  2568  5.9973e-03  1.6180e-03  1.1632e-03  5.9273e-03  1.8027e-03  6.8154e-04  0:02:13 1851
  2569  6.2165e-03  1.6028e-03  1.1670e-03  6.1473e-03  1.7840e-03  6.7524e-04  0:01:46 1850
  2570  6.4414e-03  1.5873e-03  1.1695e-03  6.3727e-03  1.7649e-03  6.6915e-04  0:01:25 1849
  2571  6.6641e-03  1.5709e-03  1.1706e-03  6.5957e-03  1.7463e-03  6.6316e-04  0:01:08 1848
  2572  6.8840e-03  1.5544e-03  1.1703e-03  6.8158e-03  1.7284e-03  6.5698e-04  0:00:54 1847

  iter  continuity  x-velocity  y-velocity      energy           k       omega     time/iter
  2573  7.0969e-03  1.5379e-03  1.1686e-03  7.0287e-03  1.7112e-03  6.5049e-04  0:06:53 1846
  2574  7.2969e-03  1.5215e-03  1.1652e-03  7.2286e-03  1.6943e-03  6.4392e-04  0:05:30 1845
  2575  7.4829e-03  1.5048e-03  1.1602e-03  7.4143e-03  1.6781e-03  6.3820e-04  0:04:24 1844
  2576  7.6533e-03  1.4877e-03  1.1533e-03  7.5842e-03  1.6625e-03  6.3289e-04  0:03:31 1843
  2577  7.8085e-03  1.4706e-03  1.1450e-03  7.7391e-03  1.6472e-03  6.2798e-04  0:02:49 1842
  2578  7.9420e-03  1.4537e-03  1.1361e-03  7.8721e-03  1.6332e-03  6.2310e-04  0:02:15 1841
  2579  8.0508e-03  1.4357e-03  1.1271e-03  7.9805e-03  1.6202e-03  6.1807e-04  0:01:48 1840
  2580  8.1288e-03  1.4174e-03  1.1175e-03  8.0580e-03  1.6077e-03  6.1302e-04  0:01:26 1839
  2581  8.1815e-03  1.3992e-03  1.1069e-03  8.1103e-03  1.5959e-03  6.0833e-04  0:01:09 1838
  2582  8.2076e-03  1.3815e-03  1.0953e-03  8.1360e-03  1.5849e-03  6.0359e-04  0:00:55 1837
  2583  8.2065e-03  1.3646e-03  1.0828e-03  8.1347e-03  1.5747e-03  5.9910e-04  0:06:51 1836

  iter  continuity  x-velocity  y-velocity      energy           k       omega     time/iter
  2584  8.1800e-03  1.3477e-03  1.0699e-03  8.1082e-03  1.5656e-03  5.9437e-04  0:05:29 1835
  2585  8.1280e-03  1.3316e-03  1.0565e-03  8.0562e-03  1.5576e-03  5.9017e-04  0:04:23 1834
  2586  8.0532e-03  1.3157e-03  1.0425e-03  7.9816e-03  1.5506e-03  5.8559e-04  0:03:30 1833
  2587  7.9549e-03  1.2996e-03  1.0284e-03  7.8836e-03  1.5444e-03  5.8052e-04  0:02:48 1832
  2588  7.8335e-03  1.2855e-03  1.0141e-03  7.7627e-03  1.5391e-03  5.7481e-04  0:02:14 1831
  2589  7.6905e-03  1.2719e-03  9.9986e-04  7.6202e-03  1.5343e-03  5.7049e-04  0:01:47 1830
  2590  7.5271e-03  1.2591e-03  9.8570e-04  7.4576e-03  1.5295e-03  5.6562e-04  0:01:26 1829
  2591  7.3451e-03  1.2474e-03  9.7173e-04  7.2765e-03  1.5253e-03  5.6055e-04  0:01:09 1828
  2592  7.1460e-03  1.2367e-03  9.5829e-04  7.0784e-03  1.5218e-03  5.5556e-04  0:00:55 1827
  2593  6.9325e-03  1.2258e-03  9.4510e-04  6.8660e-03  1.5194e-03  5.5029e-04  0:06:49 1826
  2594  6.7073e-03  1.2166e-03  9.3246e-04  6.6421e-03  1.5183e-03  5.4550e-04  0:05:27 1825

  iter  continuity  x-velocity  y-velocity      energy           k       omega     time/iter
  2595  6.4735e-03  1.2084e-03  9.2017e-04  6.4096e-03  1.5179e-03  5.4082e-04  0:04:22 1824
  2596  6.2353e-03  1.1992e-03  9.0874e-04  6.1728e-03  1.5182e-03  5.3625e-04  0:03:29 1823
  2597  5.9951e-03  1.1894e-03  8.9832e-04  5.9342e-03  1.5189e-03  5.3169e-04  0:02:47 1822
  2598  5.7562e-03  1.1810e-03  8.8874e-04  5.6968e-03  1.5203e-03  5.2737e-04  0:02:14 1821
  2599  5.5223e-03  1.1729e-03  8.7995e-04  5.4645e-03  1.5218e-03  5.2346e-04  0:01:47 1820
  2600  5.2962e-03  1.1600e-03  8.7200e-04  5.2401e-03  1.5232e-03  5.1930e-04  0:01:25 1819
  2601  5.0825e-03  1.1478e-03  8.6487e-04  5.0281e-03  1.5242e-03  5.1513e-04  0:01:08 1818
  2602  4.8862e-03  1.1385e-03  8.5852e-04  4.8334e-03  1.5252e-03  5.1093e-04  0:00:55 1817
  2603  4.7110e-03  1.1317e-03  8.5294e-04  4.6598e-03  1.5263e-03  5.0691e-04  0:06:47 1816
  2604  4.5598e-03  1.1215e-03  8.4792e-04  4.5103e-03  1.5271e-03  5.0334e-04  0:05:25 1815
  2605  4.4354e-03  1.1090e-03  8.4305e-04  4.3873e-03  1.5275e-03  4.9942e-04  0:04:20 1814

  iter  continuity  x-velocity  y-velocity      energy           k       omega     time/iter
  2606  4.3390e-03  1.0970e-03  8.3820e-04  4.2924e-03  1.5277e-03  4.9641e-04  0:03:28 1813
  2607  4.2716e-03  1.0869e-03  8.3348e-04  4.2263e-03  1.5276e-03  4.9297e-04  0:02:46 1812
  2608  4.2322e-03  1.0795e-03  8.2901e-04  4.1881e-03  1.5275e-03  4.8957e-04  0:02:13 1811
  2609  4.2179e-03  1.0692e-03  8.2463e-04  4.1749e-03  1.5271e-03  4.8626e-04  0:01:46 1810
  2610  4.2251e-03  1.0610e-03  8.1985e-04  4.1830e-03  1.5264e-03  4.8286e-04  0:01:25 1809
  2611  4.2497e-03  1.0545e-03  8.1469e-04  4.2083e-03  1.5254e-03  4.7968e-04  0:01:08 1808
  2612  4.2864e-03  1.0466e-03  8.0930e-04  4.2456e-03  1.5243e-03  4.7667e-04  0:00:54 1807
  2613  4.3297e-03  1.0387e-03  8.0355e-04  4.2894e-03  1.5225e-03  4.7368e-04  0:06:45 1806
  2614  4.3742e-03  1.0302e-03  7.9725e-04  4.3343e-03  1.5199e-03  4.7085e-04  0:05:24 1805
  2615  4.4164e-03  1.0208e-03  7.9029e-04  4.3767e-03  1.5165e-03  4.6784e-04  0:04:19 1804
  2616  4.4505e-03  1.0113e-03  7.8317e-04  4.4109e-03  1.5122e-03  4.6490e-04  0:03:27 1803

  iter  continuity  x-velocity  y-velocity      energy           k       omega     time/iter
  2617  4.4754e-03  1.0026e-03  7.7587e-04  4.4360e-03  1.5075e-03  4.6202e-04  0:02:45 1802
  2618  4.4867e-03  9.9759e-04  7.6817e-04  4.4473e-03  1.5018e-03  4.5918e-04  0:02:12 1801
  2619  4.4873e-03  9.9504e-04  7.6106e-04  4.4478e-03  1.4955e-03  4.5617e-04  0:01:46 1800
  2620  4.4783e-03  9.9353e-04  7.5417e-04  4.4388e-03  1.4882e-03  4.5319e-04  0:01:25 1799
  2621  4.4578e-03  9.9282e-04  7.4695e-04  4.4181e-03  1.4810e-03  4.5062e-04  0:01:08 1798
  2622  4.4096e-03  9.9072e-04  7.3966e-04  4.3696e-03  1.4733e-03  4.4752e-04  0:00:54 1797
  2623  4.3381e-03  9.8683e-04  7.3275e-04  4.2979e-03  1.4656e-03  4.4427e-04  0:06:42 1796
  2624  4.2572e-03  9.8386e-04  7.2585e-04  4.2167e-03  1.4575e-03  4.4093e-04  0:05:22 1795
  2625  4.1705e-03  9.8145e-04  7.1903e-04  4.1296e-03  1.4493e-03  4.3773e-04  0:04:17 1794
  2626  4.0798e-03  9.7900e-04  7.1224e-04  4.0384e-03  1.4408e-03  4.3441e-04  0:03:26 1793
  2627  3.9890e-03  9.7511e-04  7.0533e-04  3.9471e-03  1.4316e-03  4.3076e-04  0:02:44 1792

  iter  continuity  x-velocity  y-velocity      energy           k       omega     time/iter
  2628  3.9042e-03  9.6907e-04  6.9812e-04  3.8618e-03  1.4218e-03  4.2677e-04  0:02:11 1791
  2629  3.8304e-03  9.6334e-04  6.9022e-04  3.7874e-03  1.4116e-03  4.2359e-04  0:01:45 1790
  2630  3.7701e-03  9.5959e-04  6.8189e-04  3.7266e-03  1.4010e-03  4.2025e-04  0:01:24 1789
  2631  3.7261e-03  9.6108e-04  6.7300e-04  3.6822e-03  1.3899e-03  4.1706e-04  0:01:07 1788
  2632  3.7033e-03  9.6385e-04  6.6346e-04  3.6590e-03  1.3784e-03  4.1347e-04  0:00:54 1787
  2633  3.7030e-03  9.7128e-04  6.5360e-04  3.6585e-03  1.3669e-03  4.0947e-04  0:00:43 1786
  2634  3.7220e-03  9.7196e-04  6.4334e-04  3.6775e-03  1.3550e-03  4.0640e-04  0:06:31 1785
  2635  3.7587e-03  9.6964e-04  6.3278e-04  3.7142e-03  1.3431e-03  4.0294e-04  0:05:13 1784
  2636  3.8061e-03  9.6336e-04  6.2160e-04  3.7618e-03  1.3314e-03  3.9938e-04  0:04:10 1783
  2637  3.8729e-03  9.5629e-04  6.1061e-04  3.8289e-03  1.3196e-03  3.9642e-04  0:03:20 1782
  2638  3.9545e-03  9.4888e-04  5.9920e-04  3.9108e-03  1.3080e-03  3.9366e-04  0:02:40 1781

  iter  continuity  x-velocity  y-velocity      energy           k       omega     time/iter
  2639  4.0421e-03  9.3943e-04  5.8761e-04  3.9987e-03  1.2969e-03  3.9073e-04  0:02:08 1780
  2640  4.1309e-03  9.3366e-04  5.7592e-04  4.0877e-03  1.2858e-03  3.8749e-04  0:01:42 1779
  2641  4.2163e-03  9.2715e-04  5.6464e-04  4.1733e-03  1.2753e-03  3.8381e-04  0:01:22 1778
  2642  4.2942e-03  9.2484e-04  5.5387e-04  4.2514e-03  1.2651e-03  3.8098e-04  0:01:05 1777
  2643  4.3619e-03  9.2508e-04  5.4448e-04  4.3193e-03  1.2550e-03  3.7796e-04  0:06:47 1776
  2644  4.4167e-03  9.2127e-04  5.3501e-04  4.3743e-03  1.2447e-03  3.7499e-04  0:05:26 1775
  2645  4.4554e-03  9.1021e-04  5.2506e-04  4.4131e-03  1.2350e-03  3.7225e-04  0:04:20 1774
  2646  4.4778e-03  9.0180e-04  5.1669e-04  4.4357e-03  1.2261e-03  3.7008e-04  0:03:28 1773
  2647  4.4819e-03  8.9261e-04  5.0926e-04  4.4399e-03  1.2177e-03  3.6827e-04  0:02:47 1772
  2648  4.4646e-03  8.8324e-04  5.0240e-04  4.4227e-03  1.2100e-03  3.6654e-04  0:02:13 1771
  2649  4.4244e-03  8.7807e-04  4.9618e-04  4.3827e-03  1.2030e-03  3.6493e-04  0:01:46 1770

  iter  continuity  x-velocity  y-velocity      energy           k       omega     time/iter
  2650  4.3613e-03  8.7243e-04  4.9043e-04  4.3199e-03  1.1964e-03  3.6342e-04  0:01:25 1769
  2651  4.2765e-03  8.6833e-04  4.8498e-04  4.2355e-03  1.1896e-03  3.6203e-04  0:07:02 1768
  2652  4.1723e-03  8.6642e-04  4.8035e-04  4.1317e-03  1.1833e-03  3.6082e-04  0:05:37 1767
  2653  4.0492e-03  8.6011e-04  4.7606e-04  4.0091e-03  1.1767e-03  3.6002e-04  0:04:30 1766
  2654  3.9076e-03  8.5516e-04  4.7232e-04  3.8681e-03  1.1705e-03  3.5935e-04  0:03:36 1765
  2655  3.7495e-03  8.5286e-04  4.6875e-04  3.7106e-03  1.1639e-03  3.5853e-04  0:02:52 1764
  2656  3.5771e-03  8.5260e-04  4.6530e-04  3.5388e-03  1.1572e-03  3.5786e-04  0:02:18 1763
  2657  3.3943e-03  8.5667e-04  4.6243e-04  3.3567e-03  1.1505e-03  3.5724e-04  0:01:50 1762
  2658  3.2055e-03  8.6300e-04  4.5987e-04  3.1684e-03  1.1435e-03  3.5661e-04  0:01:28 1761
  2659  3.0144e-03  8.6735e-04  4.5744e-04  2.9778e-03  1.1361e-03  3.5592e-04  0:01:10 1760
  2660  2.8278e-03  8.8658e-04  4.5562e-04  2.7916e-03  1.1290e-03  3.5514e-04  0:00:56 1759

  iter  continuity  x-velocity  y-velocity      energy           k       omega     time/iter
  2661  2.6502e-03  9.0310e-04  4.5312e-04  2.6144e-03  1.1215e-03  3.5439e-04  0:06:37 1758
  2662  2.4859e-03  8.8972e-04  4.5074e-04  2.4503e-03  1.1147e-03  3.5364e-04  0:05:17 1757
  2663  2.3438e-03  8.6681e-04  4.4780e-04  2.3084e-03  1.1079e-03  3.5252e-04  0:04:14 1756
  2664  2.2331e-03  8.4553e-04  4.4421e-04  2.1978e-03  1.1018e-03  3.5076e-04  0:03:23 1755
  2665  2.1627e-03  8.3011e-04  4.4054e-04  2.1274e-03  1.0958e-03  3.4942e-04  0:02:42 1754
  2666  2.1365e-03  8.2178e-04  4.3681e-04  2.1013e-03  1.0903e-03  3.4854e-04  0:02:10 1753
  2667  2.1544e-03  8.1734e-04  4.3261e-04  2.1193e-03  1.0849e-03  3.4729e-04  0:01:44 1752
  2668  2.2130e-03  8.1175e-04  4.2776e-04  2.1780e-03  1.0797e-03  3.4605e-04  0:01:23 1751
  2669  2.3052e-03  8.0414e-04  4.2259e-04  2.2702e-03  1.0748e-03  3.4403e-04  0:01:06 1750
  2670  2.4223e-03  7.9307e-04  4.1756e-04  2.3873e-03  1.0702e-03  3.4221e-04  0:00:53 1749
  2671  2.5596e-03  7.8655e-04  4.1252e-04  2.5244e-03  1.0659e-03  3.4039e-04  0:06:32 1748

  iter  continuity  x-velocity  y-velocity      energy           k       omega     time/iter
  2672  2.7088e-03  7.8053e-04  4.0750e-04  2.6734e-03  1.0618e-03  3.3851e-04  0:05:13 1747
  2673  2.8624e-03  7.7689e-04  4.0261e-04  2.8265e-03  1.0577e-03  3.3657e-04  0:04:11 1746
  2674  3.0153e-03  7.6722e-04  3.9753e-04  2.9791e-03  1.0535e-03  3.3466e-04  0:03:20 1745
  2675  3.1623e-03  7.5608e-04  3.9255e-04  3.1258e-03  1.0492e-03  3.3282e-04  0:02:40 1744
  2676  3.2990e-03  7.4520e-04  3.8703e-04  3.2621e-03  1.0448e-03  3.3098e-04  0:02:08 1743
  2677  3.4252e-03  7.3483e-04  3.8206e-04  3.3880e-03  1.0406e-03  3.2901e-04  0:01:42 1742
  2678  3.5383e-03  7.2633e-04  3.7711e-04  3.5008e-03  1.0365e-03  3.2696e-04  0:01:22 1741
  2679  3.6371e-03  7.2201e-04  3.7234e-04  3.5994e-03  1.0327e-03  3.2504e-04  0:01:05 1740
  2680  3.7214e-03  7.1918e-04  3.6749e-04  3.6835e-03  1.0293e-03  3.2343e-04  0:00:52 1739
  2681  3.7907e-03  7.1753e-04  3.6314e-04  3.7527e-03  1.0261e-03  3.2193e-04  0:06:29 1738
  2682  3.8451e-03  7.1651e-04  3.5962e-04  3.8070e-03  1.0234e-03  3.2058e-04  0:05:11 1737

  iter  continuity  x-velocity  y-velocity      energy           k       omega     time/iter
  2683  3.8842e-03  7.1099e-04  3.5636e-04  3.8461e-03  1.0212e-03  3.1924e-04  0:04:09 1736
  2684  3.9085e-03  7.0508e-04  3.5327e-04  3.8705e-03  1.0197e-03  3.1781e-04  0:03:19 1735
  2685  3.9189e-03  6.9963e-04  3.5045e-04  3.8810e-03  1.0183e-03  3.1686e-04  0:02:39 1734
  2686  3.9168e-03  6.9565e-04  3.4791e-04  3.8790e-03  1.0174e-03  3.1574e-04  0:02:07 1733
  2687  3.9035e-03  6.9139e-04  3.4575e-04  3.8658e-03  1.0166e-03  3.1435e-04  0:01:42 1732
  2688  3.8804e-03  6.8722e-04  3.4348e-04  3.8429e-03  1.0158e-03  3.1294e-04  0:01:21 1731
  2689  3.8485e-03  6.8261e-04  3.4106e-04  3.8112e-03  1.0150e-03  3.1158e-04  0:01:05 1730
  2690  3.8095e-03  6.7626e-04  3.3854e-04  3.7724e-03  1.0140e-03  3.1018e-04  0:00:52 1729
  2691  3.7646e-03  6.6721e-04  3.3560e-04  3.7277e-03  1.0131e-03  3.0891e-04  0:06:27 1728
  2692  3.7156e-03  6.5913e-04  3.3282e-04  3.6789e-03  1.0122e-03  3.0756e-04  0:05:10 1727
  2693  3.6641e-03  6.5284e-04  3.2976e-04  3.6275e-03  1.0110e-03  3.0589e-04  0:04:08 1726

  iter  continuity  x-velocity  y-velocity      energy           k       omega     time/iter
  2694  3.6115e-03  6.4712e-04  3.2689e-04  3.5751e-03  1.0094e-03  3.0384e-04  0:03:18 1725
  2695  3.5590e-03  6.4232e-04  3.2391e-04  3.5227e-03  1.0077e-03  3.0248e-04  0:02:38 1724
  2696  3.5073e-03  6.3676e-04  3.2087e-04  3.4711e-03  1.0056e-03  3.0060e-04  0:02:07 1723
  2697  3.4575e-03  6.3144e-04  3.1787e-04  3.4214e-03  1.0034e-03  2.9861e-04  0:01:41 1722
  2698  3.4102e-03  6.2631e-04  3.1495e-04  3.3741e-03  1.0008e-03  2.9646e-04  0:01:21 1721
  2699  3.3660e-03  6.2213e-04  3.1211e-04  3.3298e-03  9.9777e-04  2.9431e-04  0:01:05 1720
  2700  3.3253e-03  6.1698e-04  3.0954e-04  3.2892e-03  9.9455e-04  2.9241e-04  0:06:35 1719
  2701  3.2886e-03  6.1127e-04  3.0706e-04  3.2524e-03  9.9168e-04  2.9042e-04  0:05:16 1718
  2702  3.2562e-03  6.0561e-04  3.0475e-04  3.2200e-03  9.8863e-04  2.8824e-04  0:04:13 1717
  2703  3.2280e-03  6.0013e-04  3.0272e-04  3.1917e-03  9.8548e-04  2.8570e-04  0:03:22 1716
  2704  3.2040e-03  5.9578e-04  3.0102e-04  3.1676e-03  9.8241e-04  2.8362e-04  0:02:42 1715

  iter  continuity  x-velocity  y-velocity      energy           k       omega     time/iter
  2705  3.1840e-03  5.9230e-04  2.9958e-04  3.1476e-03  9.7935e-04  2.8151e-04  0:02:09 1714
  2706  3.1679e-03  5.9032e-04  2.9852e-04  3.1315e-03  9.7620e-04  2.7936e-04  0:01:43 1713
  2707  3.1552e-03  5.8963e-04  2.9770e-04  3.1187e-03  9.7306e-04  2.7717e-04  0:01:23 1712
  2708  3.1455e-03  5.9214e-04  2.9707e-04  3.1088e-03  9.6985e-04  2.7499e-04  0:01:06 1711
  2709  3.1380e-03  5.9682e-04  2.9649e-04  3.1012e-03  9.6659e-04  2.7295e-04  0:00:53 1710
  2710  3.1324e-03  6.0701e-04  2.9601e-04  3.0954e-03  9.6328e-04  2.7099e-04  0:00:42 1709
  2711  3.1276e-03  6.1090e-04  2.9570e-04  3.0904e-03  9.6014e-04  2.6892e-04  0:06:15 1708
  2712  3.1228e-03  6.1175e-04  2.9563e-04  3.0856e-03  9.5725e-04  2.6687e-04  0:05:00 1707
  2713  3.1173e-03  6.1179e-04  2.9561e-04  3.0800e-03  9.5437e-04  2.6469e-04  0:04:00 1706
  2714  3.1106e-03  6.1255e-04  2.9524e-04  3.0734e-03  9.5129e-04  2.6230e-04  0:03:12 1705
  2715  3.1024e-03  6.1127e-04  2.9507e-04  3.0651e-03  9.4806e-04  2.6005e-04  0:02:33 1704

  iter  continuity  x-velocity  y-velocity      energy           k       omega     time/iter
  2716  3.0917e-03  6.0960e-04  2.9508e-04  3.0544e-03  9.4446e-04  2.5791e-04  0:02:03 1703
  2717  3.0780e-03  6.0405e-04  2.9516e-04  3.0406e-03  9.4066e-04  2.5583e-04  0:01:38 1702
  2718  3.0611e-03  6.0179e-04  2.9537e-04  3.0237e-03  9.3659e-04  2.5367e-04  0:01:18 1701
  2719  3.0405e-03  6.0157e-04  2.9592e-04  3.0031e-03  9.3244e-04  2.5165e-04  0:01:03 1700
  2720  3.0159e-03  6.0271e-04  2.9683e-04  2.9783e-03  9.2809e-04  2.4975e-04  0:06:30 1699
  2721  2.9869e-03  6.0366e-04  2.9769e-04  2.9493e-03  9.2363e-04  2.4785e-04  0:05:12 1698
  2722  2.9541e-03  6.0837e-04  2.9879e-04  2.9163e-03  9.1898e-04  2.4626e-04  0:04:09 1697
  2723  2.9174e-03  6.1266e-04  3.0002e-04  2.8796e-03  9.1439e-04  2.4485e-04  0:03:19 1696
  2724  2.8773e-03  6.2027e-04  3.0155e-04  2.8393e-03  9.0973e-04  2.4350e-04  0:02:39 1695
  2725  2.8340e-03  6.3114e-04  3.0333e-04  2.7958e-03  9.0519e-04  2.4228e-04  0:02:07 1694
  2726  2.7886e-03  6.5867e-04  3.0560e-04  2.7500e-03  9.0067e-04  2.4134e-04  0:01:42 1693

  iter  continuity  x-velocity  y-velocity      energy           k       omega     time/iter
  2727  2.7401e-03  6.8031e-04  3.0727e-04  2.7012e-03  8.9610e-04  2.4058e-04  0:01:21 1692
  2728  2.6889e-03  6.8936e-04  3.0830e-04  2.6496e-03  8.9172e-04  2.3993e-04  0:06:43 1691
  2729  2.6362e-03  6.9401e-04  3.0880e-04  2.5965e-03  8.8739e-04  2.3933e-04  0:05:22 1690
  2730  2.5833e-03  7.0505e-04  3.0908e-04  2.5432e-03  8.8318e-04  2.3895e-04  0:04:18 1689
  2731  2.5310e-03  7.1539e-04  3.0921e-04  2.4904e-03  8.7902e-04  2.3888e-04  0:03:26 1688
  2732  2.4792e-03  7.1532e-04  3.0946e-04  2.4382e-03  8.7481e-04  2.3896e-04  0:02:45 1687
  2733  2.4298e-03  7.2099e-04  3.1030e-04  2.3884e-03  8.7044e-04  2.3913e-04  0:02:12 1686
  2734  2.3843e-03  7.3426e-04  3.1086e-04  2.3426e-03  8.6585e-04  2.3948e-04  0:01:45 1685
  2735  2.3426e-03  7.4310e-04  3.1055e-04  2.3003e-03  8.6117e-04  2.4013e-04  0:01:24 1684
  2736  2.3046e-03  7.4119e-04  3.0974e-04  2.2618e-03  8.5629e-04  2.4121e-04  0:01:07 1683
  2737  2.2726e-03  7.4929e-04  3.0815e-04  2.2292e-03  8.5118e-04  2.4252e-04  0:06:30 1682

  iter  continuity  x-velocity  y-velocity      energy           k       omega     time/iter
  2738  2.2460e-03  7.5433e-04  3.0606e-04  2.2021e-03  8.4571e-04  2.4380e-04  0:05:12 1681
  2739  2.2255e-03  7.6677e-04  3.0448e-04  2.1809e-03  8.3985e-04  2.4491e-04  0:04:09 1680
  2740  2.2111e-03  7.8278e-04  3.0277e-04  2.1661e-03  8.3373e-04  2.4627e-04  0:03:19 1679
  2741  2.2001e-03  7.9026e-04  3.0218e-04  2.1548e-03  8.2724e-04  2.4810e-04  0:02:39 1678
  2742  2.1956e-03  7.9236e-04  3.0237e-04  2.1499e-03  8.2042e-04  2.4989e-04  0:02:07 1677
  2743  2.1965e-03  7.9725e-04  3.0352e-04  2.1503e-03  8.1331e-04  2.5150e-04  0:07:17 1676
  2744  2.1996e-03  7.9301e-04  3.0190e-04  2.1530e-03  8.0599e-04  2.5334e-04  0:05:49 1675
  2745  2.2060e-03  7.9553e-04  3.0179e-04  2.1589e-03  7.9842e-04  2.5504e-04  0:04:39 1674
  2746  2.2153e-03  8.1165e-04  3.0143e-04  2.1677e-03  7.9063e-04  2.5681e-04  0:03:43 1673
  2747  2.2213e-03  7.9120e-04  3.0055e-04  2.1736e-03  7.8259e-04  2.5852e-04  0:02:59 1672
  2748  2.2314e-03  7.8332e-04  2.9792e-04  2.1837e-03  7.7441e-04  2.6052e-04  0:02:23 1671

  iter  continuity  x-velocity  y-velocity      energy           k       omega     time/iter
  2749  2.2426e-03  7.9362e-04  2.9605e-04  2.1946e-03  7.6615e-04  2.6220e-04  0:01:54 1670
  2750  2.2510e-03  7.8376e-04  2.9472e-04  2.2026e-03  7.5774e-04  2.6413e-04  0:01:31 1669
  2751  2.2607e-03  7.8926e-04  2.9290e-04  2.2120e-03  7.4929e-04  2.6573e-04  0:01:13 1668
  2752  2.2699e-03  8.0050e-04  2.9216e-04  2.2207e-03  7.4087e-04  2.6733e-04  0:00:58 1667
  2753  2.2786e-03  8.1405e-04  2.9197e-04  2.2287e-03  7.3239e-04  2.6895e-04  0:06:20 1666
  2754  2.2855e-03  8.2360e-04  2.9238e-04  2.2350e-03  7.2400e-04  2.7057e-04  0:05:04 1665
  2755  2.2901e-03  8.2828e-04  2.9296e-04  2.2391e-03  7.1569e-04  2.7253e-04  0:04:03 1664
  2756  2.2947e-03  8.2790e-04  2.9397e-04  2.2431e-03  7.0741e-04  2.7431e-04  0:03:14 1663
  2757  2.2979e-03  8.2001e-04  2.9610e-04  2.2456e-03  6.9931e-04  2.7586e-04  0:02:35 1662
  2758  2.3020e-03  8.1713e-04  2.9816e-04  2.2490e-03  6.9123e-04  2.7726e-04  0:02:04 1661
  2759  2.3077e-03  8.2506e-04  2.9979e-04  2.2540e-03  6.8333e-04  2.7845e-04  0:01:39 1660

  iter  continuity  x-velocity  y-velocity      energy           k       omega     time/iter
  2760  2.3145e-03  8.2686e-04  3.0140e-04  2.2601e-03  6.7550e-04  2.7960e-04  0:01:19 1659
  2761  2.3244e-03  8.3692e-04  3.0253e-04  2.2691e-03  6.6765e-04  2.8099e-04  0:01:03 1658
  2762  2.3360e-03  8.3680e-04  3.0315e-04  2.2797e-03  6.5986e-04  2.8229e-04  0:06:22 1657
  2763  2.3515e-03  8.4853e-04  3.0375e-04  2.2942e-03  6.5215e-04  2.8361e-04  0:05:06 1656
  2764  2.3698e-03  8.6680e-04  3.0415e-04  2.3117e-03  6.4472e-04  2.8461e-04  0:04:04 1655
  2765  2.3917e-03  8.7898e-04  3.0615e-04  2.3328e-03  6.3745e-04  2.8546e-04  0:03:15 1654
  2766  2.4174e-03  8.9108e-04  3.0902e-04  2.3577e-03  6.3079e-04  2.8618e-04  0:02:36 1653
  2767  2.4462e-03  8.9590e-04  3.0982e-04  2.3857e-03  6.2455e-04  2.8667e-04  0:02:05 1652
  2768  2.4787e-03  9.1168e-04  3.1139e-04  2.4175e-03  6.1904e-04  2.8691e-04  0:01:40 1651
  2769  2.5138e-03  9.2151e-04  3.1313e-04  2.4520e-03  6.1422e-04  2.8736e-04  0:01:20 1650
  2770  2.5509e-03  9.2150e-04  3.1419e-04  2.4886e-03  6.1015e-04  2.8766e-04  0:06:34 1649

  iter  continuity  x-velocity  y-velocity      energy           k       omega     time/iter
  2771  2.5891e-03  9.2276e-04  3.1227e-04  2.5264e-03  6.0659e-04  2.8778e-04  0:05:15 1648
  2772  2.6304e-03  9.2525e-04  3.1295e-04  2.5674e-03  6.0354e-04  2.8772e-04  0:04:12 1647
  2773  2.6725e-03  9.2681e-04  3.1575e-04  2.6091e-03  6.0085e-04  2.8743e-04  0:03:21 1646
  2774  2.7162e-03  9.3284e-04  3.1824e-04  2.6523e-03  5.9840e-04  2.8701e-04  0:02:41 1645
  2775  2.7596e-03  9.4050e-04  3.2005e-04  2.6952e-03  5.9625e-04  2.8646e-04  0:02:09 1644
  2776  2.7996e-03  9.2764e-04  3.1762e-04  2.7348e-03  5.9440e-04  2.8591e-04  0:01:43 1643
  2777  2.8429e-03  9.4011e-04  3.1669e-04  2.7772e-03  5.9274e-04  2.8528e-04  0:01:22 1642
  2778  2.8841e-03  9.6757e-04  3.1846e-04  2.8175e-03  5.9141e-04  2.8451e-04  0:06:34 1641
  2779  2.9207e-03  9.5675e-04  3.1467e-04  2.8533e-03  5.9037e-04  2.8363e-04  0:05:15 1640
  2780  2.9476e-03  9.0159e-04  3.1239e-04  2.8803e-03  5.8968e-04  2.8261e-04  0:04:12 1639
  2781  2.9766e-03  8.7221e-04  3.1017e-04  2.9090e-03  5.8936e-04  2.8156e-04  0:03:21 1638

  iter  continuity  x-velocity  y-velocity      energy           k       omega     time/iter
  2782  3.0038e-03  8.6243e-04  3.0976e-04  2.9358e-03  5.8950e-04  2.8034e-04  0:02:41 1637
  2783  3.0267e-03  8.4259e-04  3.0787e-04  2.9583e-03  5.9003e-04  2.7887e-04  0:02:09 1636
  2784  3.0487e-03  8.4319e-04  3.0705e-04  2.9798e-03  5.9083e-04  2.7734e-04  0:07:10 1635
  2785  3.0672e-03  8.3690e-04  3.0693e-04  2.9977e-03  5.9181e-04  2.7563e-04  0:05:44 1634
  2786  3.0823e-03  8.2397e-04  3.0839e-04  3.0121e-03  5.9303e-04  2.7387e-04  0:04:35 1633
  2787  3.0949e-03  8.1706e-04  3.0585e-04  3.0239e-03  5.9446e-04  2.7191e-04  0:03:40 1632
  2788  3.1055e-03  8.1088e-04  3.0534e-04  3.0337e-03  5.9598e-04  2.6999e-04  0:02:56 1631
  2789  3.1151e-03  8.1658e-04  3.0556e-04  3.0423e-03  5.9760e-04  2.6823e-04  0:02:20 1630
  2790  3.1209e-03  8.1230e-04  3.0655e-04  3.0475e-03  5.9934e-04  2.6654e-04  0:01:52 1629
  2791  3.1261e-03  8.0537e-04  3.1057e-04  3.0521e-03  6.0129e-04  2.6480e-04  0:01:30 1628
  2792  3.1296e-03  7.9993e-04  3.1416e-04  3.0548e-03  6.0338e-04  2.6303e-04  0:06:37 1627

  iter  continuity  x-velocity  y-velocity      energy           k       omega     time/iter
  2793  3.1326e-03  8.0458e-04  3.1554e-04  3.0571e-03  6.0565e-04  2.6143e-04  0:05:18 1626
  2794  3.1357e-03  8.1301e-04  3.1763e-04  3.0594e-03  6.0797e-04  2.5987e-04  0:04:14 1625
  2795  3.1393e-03  8.3909e-04  3.1979e-04  3.0626e-03  6.1039e-04  2.5822e-04  0:03:23 1624
  2796  3.1402e-03  8.4608e-04  3.2177e-04  3.0631e-03  6.1270e-04  2.5656e-04  0:02:42 1623
  2797  3.1423e-03  8.4511e-04  3.2371e-04  3.0650e-03  6.1508e-04  2.5508e-04  0:02:10 1622
  2798  3.1457e-03  8.6116e-04  3.2653e-04  3.0681e-03  6.1722e-04  2.5365e-04  0:01:44 1621
  2799  3.1477e-03  8.4818e-04  3.2799e-04  3.0697e-03  6.1927e-04  2.5233e-04  0:01:23 1620
  2800  3.1518e-03  8.6322e-04  3.3075e-04  3.0736e-03  6.2118e-04  2.5105e-04  0:01:06 1619
  2801  3.1549e-03  8.7988e-04  3.3269e-04  3.0767e-03  6.2294e-04  2.4977e-04  0:00:53 1618
  2802  3.1597e-03  8.9047e-04  3.3107e-04  3.0814e-03  6.2444e-04  2.4849e-04  0:06:06 1617
  2803  3.1657e-03  8.8822e-04  3.3397e-04  3.0871e-03  6.2567e-04  2.4717e-04  0:04:52 1616

  iter  continuity  x-velocity  y-velocity      energy           k       omega     time/iter
  2804  3.1715e-03  8.8453e-04  3.3853e-04  3.0927e-03  6.2676e-04  2.4592e-04  0:03:54 1615
  2805  3.1764e-03  8.6043e-04  3.3937e-04  3.0973e-03  6.2752e-04  2.4458e-04  0:03:07 1614
  2806  3.1841e-03  8.9561e-04  3.4337e-04  3.1048e-03  6.2808e-04  2.4322e-04  0:02:29 1613
  2807  3.1867e-03  8.6925e-04  3.4193e-04  3.1077e-03  6.2823e-04  2.4175e-04  0:01:59 1612
  2808  3.1872e-03  8.3602e-04  3.3815e-04  3.1089e-03  6.2813e-04  2.4022e-04  0:01:36 1611
  2809  3.1909e-03  8.1987e-04  3.3365e-04  3.1130e-03  6.2776e-04  2.3884e-04  0:01:16 1610
  2810  3.1956e-03  8.1736e-04  3.3393e-04  3.1179e-03  6.2717e-04  2.3742e-04  0:01:01 1609
  2811  3.2004e-03  8.2786e-04  3.3617e-04  3.1227e-03  6.2626e-04  2.3632e-04  0:06:10 1608
  2812  3.2028e-03  8.3530e-04  3.3735e-04  3.1254e-03  6.2509e-04  2.3531e-04  0:04:56 1607
  2813  3.2051e-03  8.3721e-04  3.3835e-04  3.1281e-03  6.2379e-04  2.3436e-04  0:03:57 1606
  2814  3.2058e-03  8.2171e-04  3.3869e-04  3.1290e-03  6.2227e-04  2.3340e-04  0:03:09 1605

  iter  continuity  x-velocity  y-velocity      energy           k       omega     time/iter
  2815  3.2048e-03  7.9808e-04  3.3936e-04  3.1283e-03  6.2058e-04  2.3244e-04  0:02:31 1604
  2816  3.2035e-03  7.8219e-04  3.3576e-04  3.1273e-03  6.1868e-04  2.3156e-04  0:02:01 1603
  2817  3.2029e-03  7.7926e-04  3.3344e-04  3.1268e-03  6.1674e-04  2.3065e-04  0:01:37 1602
  2818  3.2026e-03  7.9829e-04  3.3247e-04  3.1265e-03  6.1460e-04  2.2973e-04  0:01:17 1601
  2819  3.1984e-03  7.9999e-04  3.3286e-04  3.1228e-03  6.1238e-04  2.2911e-04  0:01:02 1600
  2820  3.1954e-03  8.0163e-04  3.3600e-04  3.1202e-03  6.1006e-04  2.2862e-04  0:00:49 1599
  2821  3.1898e-03  7.8744e-04  3.3958e-04  3.1150e-03  6.0768e-04  2.2822e-04  0:05:59 1598
  2822  3.1833e-03  7.7015e-04  3.4116e-04  3.1087e-03  6.0518e-04  2.2794e-04  0:04:47 1597
  2823  3.1776e-03  7.7663e-04  3.4097e-04  3.1034e-03  6.0245e-04  2.2778e-04  0:03:50 1596
  2824  3.1737e-03  8.1099e-04  3.4115e-04  3.0997e-03  5.9970e-04  2.2776e-04  0:03:04 1595
  2825  3.1649e-03  8.1694e-04  3.4228e-04  3.0915e-03  5.9681e-04  2.2778e-04  0:02:27 1594

  iter  continuity  x-velocity  y-velocity      energy           k       omega     time/iter
  2826  3.1557e-03  8.1297e-04  3.4564e-04  3.0828e-03  5.9383e-04  2.2794e-04  0:01:57 1593
  2827  3.1466e-03  8.1877e-04  3.4632e-04  3.0740e-03  5.9079e-04  2.2820e-04  0:01:34 1592
  2828  3.1359e-03  8.1268e-04  3.4239e-04  3.0635e-03  5.8761e-04  2.2856e-04  0:01:15 1591
  2829  3.1250e-03  8.1560e-04  3.4068e-04  3.0528e-03  5.8435e-04  2.2893e-04  0:06:18 1590
  2830  3.1120e-03  8.3174e-04  3.4204e-04  3.0403e-03  5.8098e-04  2.2929e-04  0:05:02 1589
  2831  3.0978e-03  8.3737e-04  3.3928e-04  3.0264e-03  5.7749e-04  2.2962e-04  0:04:02 1588
  2832  3.0873e-03  8.7641e-04  3.4094e-04  3.0159e-03  5.7396e-04  2.2986e-04  0:03:13 1587
  2833  3.0759e-03  8.7187e-04  3.4459e-04  3.0039e-03  5.7035e-04  2.2999e-04  0:02:34 1586
  2834  3.0585e-03  8.5309e-04  3.4451e-04  2.9862e-03  5.6674e-04  2.3002e-04  0:02:03 1585
  2835  3.0442e-03  8.7742e-04  3.4034e-04  2.9717e-03  5.6301e-04  2.2994e-04  0:01:39 1584
  2836  3.0186e-03  8.4471e-04  3.3628e-04  2.9468e-03  5.5921e-04  2.2976e-04  0:01:19 1583

  iter  continuity  x-velocity  y-velocity      energy           k       omega     time/iter
  2837  2.9940e-03  8.0182e-04  3.2950e-04  2.9230e-03  5.5535e-04  2.2960e-04  0:01:03 1582
  2838  2.9701e-03  7.6967e-04  3.2250e-04  2.8996e-03  5.5147e-04  2.2939e-04  0:06:07 1581
  2839  2.9469e-03  7.6343e-04  3.2184e-04  2.8766e-03  5.4767e-04  2.2907e-04  0:04:53 1580
  2840  2.9229e-03  7.6661e-04  3.2192e-04  2.8526e-03  5.4396e-04  2.2889e-04  0:03:54 1579
  2841  2.8966e-03  7.4868e-04  3.2120e-04  2.8267e-03  5.4036e-04  2.2878e-04  0:03:07 1578
  2842  2.8710e-03  7.4446e-04  3.1806e-04  2.8011e-03  5.3682e-04  2.2863e-04  0:02:30 1577
  2843  2.8446e-03  7.3946e-04  3.1619e-04  2.7745e-03  5.3341e-04  2.2846e-04  0:02:00 1576
  2844  2.8179e-03  7.3869e-04  3.1021e-04  2.7475e-03  5.3006e-04  2.2830e-04  0:01:36 1575
  2845  2.7918e-03  7.4610e-04  3.0333e-04  2.7210e-03  5.2687e-04  2.2816e-04  0:01:17 1574
  2846  2.7670e-03  7.7061e-04  3.0229e-04  2.6956e-03  5.2372e-04  2.2795e-04  0:01:01 1573
  2847  2.7409e-03  7.8767e-04  3.0285e-04  2.6691e-03  5.2068e-04  2.2781e-04  0:06:03 1572

  iter  continuity  x-velocity  y-velocity      energy           k       omega     time/iter
  2848  2.7148e-03  7.9592e-04  3.0577e-04  2.6431e-03  5.1781e-04  2.2755e-04  0:04:50 1571
  2849  2.6870e-03  7.8883e-04  3.0749e-04  2.6150e-03  5.1510e-04  2.2730e-04  0:03:52 1570
  2850  2.6578e-03  7.7627e-04  3.0877e-04  2.5858e-03  5.1247e-04  2.2707e-04  0:03:06 1569
  2851  2.6311e-03  7.8314e-04  3.0904e-04  2.5592e-03  5.0998e-04  2.2680e-04  0:02:28 1568
  2852  2.6096e-03  8.2683e-04  3.0580e-04  2.5373e-03  5.0759e-04  2.2635e-04  0:01:59 1567
  2853  2.5843e-03  8.4773e-04  3.0196e-04  2.5122e-03  5.0510e-04  2.2599e-04  0:01:35 1566
  2854  2.5573e-03  8.4388e-04  3.0469e-04  2.4857e-03  5.0277e-04  2.2587e-04  0:01:16 1565
  2855  2.5323e-03  8.4025e-04  3.0587e-04  2.4607e-03  5.0052e-04  2.2549e-04  0:01:01 1564
  2856  2.5085e-03  8.3719e-04  3.0655e-04  2.4365e-03  4.9832e-04  2.2523e-04  0:06:01 1563
  2857  2.4870e-03  8.6913e-04  3.0630e-04  2.4153e-03  4.9618e-04  2.2490e-04  0:04:49 1562
  2858  2.4649e-03  8.9181e-04  3.0375e-04  2.3934e-03  4.9408e-04  2.2454e-04  0:03:51 1561

  iter  continuity  x-velocity  y-velocity      energy           k       omega     time/iter
  2859  2.4425e-03  8.7712e-04  3.0469e-04  2.3712e-03  4.9210e-04  2.2417e-04  0:03:05 1560
  2860  2.4249e-03  8.9366e-04  3.0878e-04  2.3536e-03  4.9012e-04  2.2380e-04  0:02:28 1559
  2861  2.4058e-03  8.8729e-04  3.0815e-04  2.3345e-03  4.8808e-04  2.2341e-04  0:01:58 1558
  2862  2.3906e-03  8.8339e-04  3.0310e-04  2.3187e-03  4.8597e-04  2.2299e-04  0:01:34 1557
  2863  2.3802e-03  9.1803e-04  3.0203e-04  2.3071e-03  4.8375e-04  2.2246e-04  0:01:15 1556
  2864  2.3637e-03  9.2438e-04  3.0383e-04  2.2904e-03  4.8143e-04  2.2191e-04  0:01:00 1555
  2865  2.3382e-03  8.5655e-04  2.9946e-04  2.2662e-03  4.7906e-04  2.2115e-04  0:00:48 1554
  2866  2.3215e-03  8.4251e-04  2.9747e-04  2.2502e-03  4.7675e-04  2.2026e-04  0:05:49 1553
  2867  2.3043e-03  8.1525e-04  2.9643e-04  2.2338e-03  4.7452e-04  2.1897e-04  0:04:39 1552
  2868  2.2898e-03  8.0215e-04  2.9325e-04  2.2196e-03  4.7229e-04  2.1795e-04  0:03:43 1551
  2869  2.2773e-03  7.9416e-04  2.9127e-04  2.2070e-03  4.7003e-04  2.1713e-04  0:02:58 1550

  iter  continuity  x-velocity  y-velocity      energy           k       omega     time/iter
  2870  2.2660e-03  7.8981e-04  2.8609e-04  2.1955e-03  4.6779e-04  2.1616e-04  0:02:23 1549
  2871  2.2579e-03  7.9816e-04  2.8165e-04  2.1870e-03  4.6554e-04  2.1518e-04  0:01:54 1548
  2872  2.2526e-03  8.2521e-04  2.8308e-04  2.1813e-03  4.6332e-04  2.1416e-04  0:01:31 1547
  2873  2.2428e-03  8.1452e-04  2.8319e-04  2.1718e-03  4.6102e-04  2.1313e-04  0:01:13 1546
  2874  2.2355e-03  8.1331e-04  2.8509e-04  2.1649e-03  4.5857e-04  2.1208e-04  0:06:07 1545
  2875  2.2285e-03  8.1223e-04  2.9158e-04  2.1580e-03  4.5607e-04  2.1101e-04  0:04:54 1544
  2876  2.2236e-03  8.1936e-04  2.9038e-04  2.1534e-03  4.5357e-04  2.0994e-04  0:03:55 1543
  2877  2.2253e-03  8.4811e-04  2.8408e-04  2.1551e-03  4.5113e-04  2.0884e-04  0:03:08 1542
  2878  2.2233e-03  8.6845e-04  2.8243e-04  2.1534e-03  4.4881e-04  2.0774e-04  0:02:30 1541
  2879  2.2208e-03  8.6843e-04  2.8411e-04  2.1513e-03  4.4668e-04  2.0659e-04  0:02:00 1540
  2880  2.2176e-03  8.6759e-04  2.9005e-04  2.1482e-03  4.4474e-04  2.0559e-04  0:01:36 1539

  iter  continuity  x-velocity  y-velocity      energy           k       omega     time/iter
  2881  2.2148e-03  8.6452e-04  2.9350e-04  2.1456e-03  4.4306e-04  2.0473e-04  0:01:17 1538
  2882  2.2154e-03  8.8817e-04  2.9240e-04  2.1470e-03  4.4163e-04  2.0412e-04  0:01:01 1537
  2883  2.2108e-03  8.8712e-04  2.9249e-04  2.1434e-03  4.4041e-04  2.0355e-04  0:00:49 1536
  2884  2.2077e-03  8.6331e-04  2.9563e-04  2.1407e-03  4.3933e-04  2.0298e-04  0:05:46 1535
  2885  2.2083e-03  8.7017e-04  2.9327e-04  2.1415e-03  4.3847e-04  2.0243e-04  0:04:37 1534
  2886  2.2119e-03  9.0814e-04  2.8810e-04  2.1448e-03  4.3783e-04  2.0181e-04  0:03:41 1533
  2887  2.2064e-03  8.8813e-04  2.8802e-04  2.1394e-03  4.3744e-04  2.0117e-04  0:02:57 1532
  2888  2.2117e-03  8.9908e-04  2.9222e-04  2.1436e-03  4.3722e-04  2.0055e-04  0:02:21 1531
  2889  2.2154e-03  9.3321e-04  2.9795e-04  2.1463e-03  4.3717e-04  1.9980e-04  0:01:53 1530
  2890  2.1989e-03  8.6697e-04  2.9944e-04  2.1312e-03  4.3717e-04  1.9907e-04  0:01:30 1529
  2891  2.1915e-03  8.4071e-04  2.9589e-04  2.1252e-03  4.3723e-04  1.9860e-04  0:01:12 1528

  iter  continuity  x-velocity  y-velocity      energy           k       omega     time/iter
  2892  2.1856e-03  8.3185e-04  2.9336e-04  2.1197e-03  4.3737e-04  1.9823e-04  0:00:58 1527
  2893  2.1803e-03  8.3294e-04  2.8740e-04  2.1144e-03  4.3766e-04  1.9785e-04  0:05:51 1526
  2894  2.1781e-03  8.4639e-04  2.8329e-04  2.1118e-03  4.3801e-04  1.9729e-04  0:04:41 1525
  2895  2.1737e-03  8.5911e-04  2.8343e-04  2.1072e-03  4.3828e-04  1.9594e-04  0:03:45 1524
  2896  2.1645e-03  8.3690e-04  2.8367e-04  2.0986e-03  4.3846e-04  1.9473e-04  0:03:00 1523
  2897  2.1584e-03  8.2864e-04  2.8618e-04  2.0926e-03  4.3859e-04  1.9430e-04  0:02:24 1522
  2898  2.1527e-03  8.2264e-04  2.8781e-04  2.0867e-03  4.3879e-04  1.9370e-04  0:01:55 1521
  2899  2.1504e-03  8.3628e-04  2.8130e-04  2.0842e-03  4.3900e-04  1.9306e-04  0:01:32 1520
  2900  2.1482e-03  8.6922e-04  2.7893e-04  2.0818e-03  4.3929e-04  1.9259e-04  0:01:13 1519
  2901  2.1436e-03  8.8325e-04  2.7988e-04  2.0775e-03  4.3973e-04  1.9214e-04  0:00:59 1518
  2902  2.1417e-03  8.9236e-04  2.8623e-04  2.0755e-03  4.4040e-04  1.9169e-04  0:00:47 1517

  iter  continuity  x-velocity  y-velocity      energy           k       omega     time/iter
  2903  2.1363e-03  8.8286e-04  2.8812e-04  2.0703e-03  4.4114e-04  1.9138e-04  0:05:41 1516
  2904  2.1332e-03  8.8319e-04  2.8594e-04  2.0677e-03  4.4188e-04  1.9110e-04  0:04:32 1515
  2905  2.1274e-03  8.7949e-04  2.8471e-04  2.0629e-03  4.4268e-04  1.9091e-04  0:03:38 1514
  2906  2.1221e-03  8.4741e-04  2.8631e-04  2.0579e-03  4.4356e-04  1.9062e-04  0:02:54 1513
  2907  2.1219e-03  8.4456e-04  2.8851e-04  2.0579e-03  4.4452e-04  1.9038e-04  0:02:19 1512
  2908  2.1262e-03  8.8270e-04  2.8874e-04  2.0625e-03  4.4557e-04  1.9001e-04  0:01:51 1511
  2909  2.1251e-03  8.9559e-04  2.8860e-04  2.0612e-03  4.4665e-04  1.8978e-04  0:01:29 1510
  2910  2.1271e-03  8.7406e-04  2.8754e-04  2.0633e-03  4.4770e-04  1.8947e-04  0:01:11 1509
  2911  2.1379e-03  9.0977e-04  2.9196e-04  2.0737e-03  4.4877e-04  1.8912e-04  0:00:57 1508
  2912  2.1402e-03  9.0306e-04  2.9289e-04  2.0755e-03  4.4984e-04  1.8866e-04  0:05:47 1507
  2913  2.1438e-03  9.3367e-04  2.8970e-04  2.0791e-03  4.5095e-04  1.8814e-04  0:04:37 1506

  iter  continuity  x-velocity  y-velocity      energy           k       omega     time/iter
  2914  2.1327e-03  8.4836e-04  2.8542e-04  2.0697e-03  4.5201e-04  1.8764e-04  0:03:42 1505
  2915  2.1326e-03  8.3798e-04  2.7884e-04  2.0707e-03  4.5311e-04  1.8719e-04  0:02:57 1504
  2916  2.1358e-03  8.2526e-04  2.7994e-04  2.0743e-03  4.5427e-04  1.8678e-04  0:02:22 1503
  2917  2.1361e-03  8.1363e-04  2.7709e-04  2.0750e-03  4.5531e-04  1.8640e-04  0:01:53 1502
  2918  2.1382e-03  8.0515e-04  2.7345e-04  2.0778e-03  4.5630e-04  1.8588e-04  0:01:31 1501
  2919  2.1405e-03  7.9276e-04  2.7123e-04  2.0803e-03  4.5728e-04  1.8562e-04  0:06:12 1500
  2920  2.1422e-03  7.7933e-04  2.6761e-04  2.0824e-03  4.5824e-04  1.8538e-04  0:04:58 1499
  2921  2.1475e-03  7.8076e-04  2.6284e-04  2.0878e-03  4.5915e-04  1.8506e-04  0:03:58 1498
  2922  2.1550e-03  8.1376e-04  2.6531e-04  2.0955e-03  4.6004e-04  1.8468e-04  0:03:10 1497
  2923  2.1607e-03  8.1652e-04  2.6824e-04  2.1019e-03  4.6093e-04  1.8428e-04  0:02:32 1496
  2924  2.1679e-03  8.1349e-04  2.7400e-04  2.1091e-03  4.6189e-04  1.8389e-04  0:02:02 1495

  iter  continuity  x-velocity  y-velocity      energy           k       omega     time/iter
  2925  2.1739e-03  8.1480e-04  2.7349e-04  2.1154e-03  4.6283e-04  1.8346e-04  0:01:37 1494
  2926  2.1816e-03  8.2348e-04  2.7102e-04  2.1232e-03  4.6368e-04  1.8330e-04  0:01:18 1493
  2927  2.1886e-03  8.3979e-04  2.6924e-04  2.1307e-03  4.6454e-04  1.8320e-04  0:01:02 1492
  2928  2.1931e-03  8.2393e-04  2.6731e-04  2.1360e-03  4.6545e-04  1.8295e-04  0:05:48 1491
  2929  2.1993e-03  8.0628e-04  2.6876e-04  2.1424e-03  4.6640e-04  1.8259e-04  0:04:38 1490
  2930  2.2057e-03  8.1288e-04  2.7017e-04  2.1491e-03  4.6730e-04  1.8191e-04  0:03:42 1489
  2931  2.2138e-03  8.4596e-04  2.6787e-04  2.1577e-03  4.6821e-04  1.8110e-04  0:02:58 1488
  2932  2.2184e-03  8.4129e-04  2.6741e-04  2.1630e-03  4.6912e-04  1.8027e-04  0:02:22 1487
  2933  2.2264e-03  8.4799e-04  2.7181e-04  2.1711e-03  4.7002e-04  1.8006e-04  0:01:54 1486
  2934  2.2330e-03  8.5444e-04  2.7499e-04  2.1779e-03  4.7090e-04  1.7967e-04  0:01:31 1485
  2935  2.2402e-03  8.4585e-04  2.7103e-04  2.1844e-03  4.7169e-04  1.7919e-04  0:01:13 1484

  iter  continuity  x-velocity  y-velocity      energy           k       omega     time/iter
  2936  2.2508e-03  8.9023e-04  2.7037e-04  2.1941e-03  4.7244e-04  1.7864e-04  0:00:58 1483
  2937  2.2423e-03  8.3532e-04  2.6668e-04  2.1868e-03  4.7305e-04  1.7808e-04  0:00:46 1482
  2938  2.2383e-03  7.7932e-04  2.6125e-04  2.1841e-03  4.7366e-04  1.7758e-04  0:05:33 1481
  2939  2.2370e-03  7.6154e-04  2.6154e-04  2.1839e-03  4.7425e-04  1.7705e-04  0:04:26 1480
  2940  2.2354e-03  7.5320e-04  2.5760e-04  2.1835e-03  4.7472e-04  1.7633e-04  0:03:33 1479
  2941  2.2357e-03  7.6472e-04  2.5351e-04  2.1843e-03  4.7504e-04  1.7595e-04  0:02:50 1478
  2942  2.2317e-03  7.3715e-04  2.4852e-04  2.1808e-03  4.7539e-04  1.7563e-04  0:02:16 1477
  2943  2.2301e-03  7.2584e-04  2.4079e-04  2.1793e-03  4.7568e-04  1.7526e-04  0:01:49 1476
  2944  2.2311e-03  7.3533e-04  2.4060e-04  2.1802e-03  4.7594e-04  1.7502e-04  0:01:27 1475
  2945  2.2294e-03  7.4522e-04  2.4294e-04  2.1786e-03  4.7615e-04  1.7474e-04  0:01:10 1474
  2946  2.2271e-03  7.4185e-04  2.4568e-04  2.1770e-03  4.7634e-04  1.7448e-04  0:00:56 1473

  iter  continuity  x-velocity  y-velocity      energy           k       omega     time/iter
  2947  2.2252e-03  7.4471e-04  2.4947e-04  2.1754e-03  4.7649e-04  1.7426e-04  0:00:44 1472
  2948  2.2244e-03  7.5970e-04  2.5032e-04  2.1749e-03  4.7659e-04  1.7402e-04  0:05:30 1471
  2949  2.2252e-03  7.8121e-04  2.4851e-04  2.1759e-03  4.7668e-04  1.7364e-04  0:04:24 1470
  2950  2.2258e-03  7.9934e-04  2.4585e-04  2.1765e-03  4.7672e-04  1.7344e-04  0:03:31 1469
  2951  2.2210e-03  7.9401e-04  2.4566e-04  2.1723e-03  4.7677e-04  1.7324e-04  0:02:48 1468
  2952  2.2170e-03  7.6729e-04  2.4982e-04  2.1686e-03  4.7680e-04  1.7297e-04  0:02:15 1467
  2953  2.2161e-03  7.6528e-04  2.5473e-04  2.1681e-03  4.7681e-04  1.7263e-04  0:01:48 1466
  2954  2.2176e-03  7.9602e-04  2.5055e-04  2.1699e-03  4.7681e-04  1.7225e-04  0:01:26 1465
  2955  2.2162e-03  8.1419e-04  2.4899e-04  2.1687e-03  4.7684e-04  1.7179e-04  0:01:09 1464
  2956  2.2151e-03  8.1697e-04  2.5135e-04  2.1681e-03  4.7689e-04  1.7126e-04  0:00:55 1463
  2957  2.2156e-03  8.2200e-04  2.5209e-04  2.1686e-03  4.7696e-04  1.7072e-04  0:05:36 1462

  iter  continuity  x-velocity  y-velocity      energy           k       omega     time/iter
  2958  2.2130e-03  8.2782e-04  2.4962e-04  2.1661e-03  4.7701e-04  1.7006e-04  0:04:29 1461
  2959  2.2058e-03  7.7381e-04  2.4796e-04  2.1592e-03  4.7704e-04  1.6944e-04  0:03:35 1460
  2960  2.2113e-03  8.2218e-04  2.4910e-04  2.1637e-03  4.7705e-04  1.6896e-04  0:02:52 1459
  2961  2.2033e-03  7.9928e-04  2.4950e-04  2.1563e-03  4.7704e-04  1.6846e-04  0:02:17 1458
  2962  2.1887e-03  7.0431e-04  2.4840e-04  2.1430e-03  4.7696e-04  1.6801e-04  0:01:50 1457
  2963  2.1803e-03  6.8047e-04  2.4555e-04  2.1360e-03  4.7678e-04  1.6769e-04  0:01:28 1456
  2964  2.1719e-03  6.5996e-04  2.4303e-04  2.1290e-03  4.7665e-04  1.6746e-04  0:01:10 1455
  2965  2.1664e-03  6.5606e-04  2.3560e-04  2.1240e-03  4.7650e-04  1.6724e-04  0:00:56 1454
  2966  2.1610e-03  6.5298e-04  2.2869e-04  2.1187e-03  4.7631e-04  1.6694e-04  0:00:45 1453
  2967  2.1552e-03  6.4839e-04  2.2336e-04  2.1128e-03  4.7615e-04  1.6629e-04  0:05:26 1452
  2968  2.1510e-03  6.4908e-04  2.2305e-04  2.1084e-03  4.7603e-04  1.6578e-04  0:04:21 1451

  iter  continuity  x-velocity  y-velocity      energy           k       omega     time/iter
  2969  2.1487e-03  6.7205e-04  2.2550e-04  2.1060e-03  4.7597e-04  1.6548e-04  0:03:29 1450
  2970  2.1426e-03  6.6857e-04  2.2594e-04  2.1003e-03  4.7592e-04  1.6517e-04  0:02:47 1449
  2971  2.1377e-03  6.6427e-04  2.2447e-04  2.0959e-03  4.7584e-04  1.6500e-04  0:02:13 1448
  2972  2.1319e-03  6.4718e-04  2.2696e-04  2.0901e-03  4.7578e-04  1.6477e-04  0:01:47 1447
  2973  2.1268e-03  6.3490e-04  2.2559e-04  2.0851e-03  4.7566e-04  1.6452e-04  0:01:25 1446
  2974  2.1247e-03  6.4460e-04  2.2360e-04  2.0830e-03  4.7547e-04  1.6420e-04  0:01:08 1445
  2975  2.1260e-03  6.7952e-04  2.2270e-04  2.0840e-03  4.7526e-04  1.6382e-04  0:00:54 1444
  2976  2.1213e-03  6.7820e-04  2.2416e-04  2.0797e-03  4.7502e-04  1.6327e-04  0:00:44 1443
  2977  2.1181e-03  6.7488e-04  2.2710e-04  2.0765e-03  4.7473e-04  1.6262e-04  0:05:23 1442
  2978  2.1135e-03  6.6579e-04  2.2825e-04  2.0721e-03  4.7447e-04  1.6198e-04  0:04:18 1441
  2979  2.1110e-03  6.7682e-04  2.2657e-04  2.0700e-03  4.7423e-04  1.6134e-04  0:03:27 1440

  iter  continuity  x-velocity  y-velocity      energy           k       omega     time/iter
  2980  2.1104e-03  7.1232e-04  2.2694e-04  2.0698e-03  4.7398e-04  1.6066e-04  0:02:45 1439
  2981  2.1014e-03  6.9239e-04  2.2811e-04  2.0613e-03  4.7372e-04  1.5993e-04  0:02:12 1438
  2982  2.0960e-03  6.7733e-04  2.2809e-04  2.0560e-03  4.7343e-04  1.5919e-04  0:01:46 1437
  2983  2.0927e-03  6.8733e-04  2.2636e-04  2.0527e-03  4.7313e-04  1.5843e-04  0:01:24 1436
  2984  2.0906e-03  7.1611e-04  2.2645e-04  2.0502e-03  4.7274e-04  1.5761e-04  0:01:07 1435
  2985  2.0813e-03  6.8376e-04  2.2592e-04  2.0408e-03  4.7233e-04  1.5686e-04  0:00:54 1434
  2986  2.0838e-03  7.4436e-04  2.2758e-04  2.0420e-03  4.7189e-04  1.5595e-04  0:00:43 1433
  2987  2.0740e-03  7.5695e-04  2.3287e-04  2.0323e-03  4.7142e-04  1.5529e-04  0:05:21 1432
  2988  2.0509e-03  6.5811e-04  2.3189e-04  2.0108e-03  4.7086e-04  1.5461e-04  0:04:17 1431
  2989  2.0346e-03  6.1575e-04  2.2802e-04  1.9958e-03  4.7023e-04  1.5394e-04  0:03:25 1430
  2990  2.0211e-03  6.0929e-04  2.2318e-04  1.9833e-03  4.6954e-04  1.5329e-04  0:02:44 1429

  iter  continuity  x-velocity  y-velocity      energy           k       omega     time/iter
  2991  2.0081e-03  6.0790e-04  2.1967e-04  1.9706e-03  4.6879e-04  1.5270e-04  0:02:11 1428
  2992  1.9937e-03  5.9527e-04  2.1731e-04  1.9562e-03  4.6805e-04  1.5213e-04  0:01:45 1427
  2993  1.9801e-03  5.9359e-04  2.1452e-04  1.9423e-03  4.6733e-04  1.5166e-04  0:01:24 1426
  2994  1.9671e-03  6.0340e-04  2.1055e-04  1.9290e-03  4.6659e-04  1.5119e-04  0:01:07 1425
  2995  1.9540e-03  6.1550e-04  2.0838e-04  1.9157e-03  4.6584e-04  1.5071e-04  0:00:54 1424
  2996  1.9385e-03  6.1894e-04  2.0763e-04  1.9002e-03  4.6512e-04  1.5024e-04  0:05:27 1423
  2997  1.9237e-03  6.3489e-04  2.0768e-04  1.8858e-03  4.6440e-04  1.4967e-04  0:04:22 1422
  2998  1.9099e-03  6.3925e-04  2.0880e-04  1.8720e-03  4.6369e-04  1.4912e-04  0:03:29 1421
  2999  1.8958e-03  6.5113e-04  2.0812e-04  1.8570e-03  4.6297e-04  1.4833e-04  0:02:47 1420
  3000  1.8808e-03  6.5834e-04  2.0082e-04  1.8415e-03  4.6227e-04  1.4739e-04  0:02:14 1419
  3001  1.8670e-03  6.6703e-04  2.0000e-04  1.8274e-03  4.6160e-04  1.4652e-04  0:01:47 1418

  iter  continuity  x-velocity  y-velocity      energy           k       omega     time/iter
  3002  1.8451e-03  6.4413e-04  2.0014e-04  1.8058e-03  4.6091e-04  1.4594e-04  0:01:25 1417
  3003  1.8252e-03  6.0894e-04  2.0051e-04  1.7868e-03  4.6024e-04  1.4518e-04  0:01:08 1416
  3004  1.8064e-03  5.9083e-04  2.0117e-04  1.7684e-03  4.5956e-04  1.4457e-04  0:00:55 1415
  3005  1.7865e-03  5.7831e-04  2.0103e-04  1.7488e-03  4.5888e-04  1.4401e-04  0:05:26 1414
  3006  1.7681e-03  5.7765e-04  2.0099e-04  1.7305e-03  4.5820e-04  1.4338e-04  0:04:21 1413
  3007  1.7520e-03  6.0173e-04  2.0197e-04  1.7147e-03  4.5753e-04  1.4280e-04  0:03:29 1412
  3008  1.7357e-03  6.3308e-04  2.0178e-04  1.6986e-03  4.5687e-04  1.4216e-04  0:02:47 1411
  3009  1.7172e-03  6.3500e-04  2.0289e-04  1.6802e-03  4.5621e-04  1.4146e-04  0:02:13 1410
  3010  1.6981e-03  6.1865e-04  2.0581e-04  1.6608e-03  4.5556e-04  1.4074e-04  0:01:47 1409
  3011  1.6807e-03  6.2110e-04  2.0688e-04  1.6433e-03  4.5498e-04  1.4007e-04  0:01:25 1408
  3012  1.6677e-03  6.4470e-04  2.0618e-04  1.6298e-03  4.5445e-04  1.3941e-04  0:01:08 1407

  iter  continuity  x-velocity  y-velocity      energy           k       omega     time/iter
  3013  1.6483e-03  6.3813e-04  2.0388e-04  1.6099e-03  4.5396e-04  1.3881e-04  0:00:54 1406
  3014  1.6340e-03  6.3909e-04  2.0458e-04  1.5954e-03  4.5352e-04  1.3827e-04  0:00:44 1405
  3015  1.6326e-03  7.1504e-04  2.1157e-04  1.5926e-03  4.5310e-04  1.3773e-04  0:05:16 1404
  3016  1.6122e-03  7.0519e-04  2.1379e-04  1.5723e-03  4.5268e-04  1.3717e-04  0:04:12 1403
  3017  1.5854e-03  6.2688e-04  2.1027e-04  1.5467e-03  4.5225e-04  1.3674e-04  0:03:22 1402
  3018  1.5668e-03  5.9828e-04  2.0734e-04  1.5292e-03  4.5180e-04  1.3627e-04  0:02:41 1401
  3019  1.5514e-03  5.6918e-04  2.0542e-04  1.5143e-03  4.5135e-04  1.3576e-04  0:02:09 1400
  3020  1.5392e-03  5.6937e-04  2.0084e-04  1.5023e-03  4.5087e-04  1.3520e-04  0:01:43 1399
  3021  1.5284e-03  5.6332e-04  1.9618e-04  1.4913e-03  4.5038e-04  1.3457e-04  0:01:22 1398
  3022  1.5188e-03  5.5497e-04  1.9545e-04  1.4813e-03  4.4985e-04  1.3394e-04  0:01:06 1397
  3023  1.5105e-03  5.4799e-04  1.9664e-04  1.4725e-03  4.4929e-04  1.3340e-04  0:00:53 1396

  iter  continuity  x-velocity  y-velocity      energy           k       omega     time/iter
  3024  1.5022e-03  5.3238e-04  1.9754e-04  1.4638e-03  4.4875e-04  1.3278e-04  0:05:21 1395
  3025  1.4924e-03  5.1895e-04  1.9689e-04  1.4541e-03  4.4819e-04  1.3213e-04  0:04:17 1394
  3026  1.4855e-03  5.2363e-04  1.9384e-04  1.4474e-03  4.4756e-04  1.3140e-04  0:03:25 1393
  3027  1.4788e-03  5.3651e-04  1.9205e-04  1.4411e-03  4.4687e-04  1.3066e-04  0:02:44 1392
  3028  1.4736e-03  5.5052e-04  1.8980e-04  1.4360e-03  4.4611e-04  1.2993e-04  0:02:11 1391
  3029  1.4654e-03  5.3364e-04  1.8596e-04  1.4274e-03  4.4536e-04  1.2919e-04  0:01:45 1390
  3030  1.4591e-03  5.1929e-04  1.8475e-04  1.4208e-03  4.4454e-04  1.2840e-04  0:01:24 1389
  3031  1.4553e-03  5.2280e-04  1.8690e-04  1.4166e-03  4.4366e-04  1.2767e-04  0:01:07 1388
  3032  1.4504e-03  5.2576e-04  1.8583e-04  1.4115e-03  4.4274e-04  1.2716e-04  0:00:54 1387
  3033  1.4479e-03  5.3422e-04  1.8507e-04  1.4095e-03  4.4177e-04  1.2669e-04  0:05:20 1386
  3034  1.4449e-03  5.4272e-04  1.8709e-04  1.4069e-03  4.4076e-04  1.2626e-04  0:04:16 1385

  iter  continuity  x-velocity  y-velocity      energy           k       omega     time/iter
  3035  1.4426e-03  5.3848e-04  1.8785e-04  1.4049e-03  4.3971e-04  1.2586e-04  0:03:25 1384
  3036  1.4399e-03  5.2206e-04  1.9068e-04  1.4022e-03  4.3864e-04  1.2560e-04  0:02:43 1383
  3037  1.4402e-03  5.3145e-04  1.9290e-04  1.4027e-03  4.3756e-04  1.2539e-04  0:02:11 1382
  3038  1.4441e-03  5.5782e-04  1.9373e-04  1.4069e-03  4.3650e-04  1.2514e-04  0:01:44 1381
  3039  1.4461e-03  5.6315e-04  1.9543e-04  1.4095e-03  4.3544e-04  1.2489e-04  0:01:24 1380
  3040  1.4522e-03  5.7219e-04  1.9579e-04  1.4157e-03  4.3443e-04  1.2456e-04  0:01:07 1379
  3041  1.4580e-03  5.7335e-04  1.9825e-04  1.4217e-03  4.3347e-04  1.2419e-04  0:00:53 1378
  3042  1.4652e-03  5.7690e-04  1.9840e-04  1.4292e-03  4.3259e-04  1.2374e-04  0:00:43 1377
  3043  1.4787e-03  6.0897e-04  2.0001e-04  1.4429e-03  4.3180e-04  1.2324e-04  0:05:09 1376
  3044  1.4922e-03  6.2250e-04  2.0079e-04  1.4562e-03  4.3111e-04  1.2280e-04  0:04:07 1375
  3045  1.5069e-03  6.2856e-04  1.9924e-04  1.4707e-03  4.3046e-04  1.2232e-04  0:03:18 1374

  iter  continuity  x-velocity  y-velocity      energy           k       omega     time/iter
  3046  1.5258e-03  6.5358e-04  2.0244e-04  1.4891e-03  4.2988e-04  1.2201e-04  0:02:38 1373
  3047  1.5498e-03  6.7188e-04  2.0728e-04  1.5122e-03  4.2934e-04  1.2176e-04  0:02:06 1372
  3048  1.5650e-03  6.9988e-04  2.0613e-04  1.5274e-03  4.2884e-04  1.2142e-04  0:01:41 1371
  3049  1.5679e-03  6.3735e-04  2.0133e-04  1.5320e-03  4.2877e-04  1.2124e-04  0:01:21 1370
  3050  1.5765e-03  5.6126e-04  1.9758e-04  1.5425e-03  4.2896e-04  1.2106e-04  0:05:38 1369
  3051  1.5893e-03  5.2161e-04  1.9309e-04  1.5565e-03  4.2940e-04  1.2093e-04  0:04:30 1368
  3052  1.6053e-03  4.9654e-04  1.9190e-04  1.5731e-03  4.3007e-04  1.2080e-04  0:03:36 1367
  3053  1.6249e-03  4.9646e-04  1.9282e-04  1.5928e-03  4.3091e-04  1.2066e-04  0:02:53 1366
  3054  1.6447e-03  4.9255e-04  1.9509e-04  1.6127e-03  4.3189e-04  1.2061e-04  0:02:18 1365
  3055  1.6648e-03  4.7451e-04  1.9581e-04  1.6327e-03  4.3298e-04  1.2059e-04  0:01:50 1364
  3056  1.6840e-03  4.6160e-04  1.9628e-04  1.6521e-03  4.3416e-04  1.2061e-04  0:01:28 1363

  iter  continuity  x-velocity  y-velocity      energy           k       omega     time/iter
  3057  1.7032e-03  4.5700e-04  1.9642e-04  1.6715e-03  4.3536e-04  1.2066e-04  0:01:11 1362
  3058  1.7239e-03  4.6163e-04  1.9454e-04  1.6923e-03  4.3660e-04  1.2076e-04  0:00:56 1361
  3059  1.7450e-03  4.6622e-04  1.9514e-04  1.7133e-03  4.3785e-04  1.2096e-04  0:05:17 1360
  3060  1.7662e-03  4.7071e-04  1.9616e-04  1.7345e-03  4.3911e-04  1.2125e-04  0:04:14 1359
  3061  1.7876e-03  4.7030e-04  1.9453e-04  1.7558e-03  4.4042e-04  1.2154e-04  0:03:23 1358
  3062  1.8096e-03  4.7718e-04  1.9555e-04  1.7776e-03  4.4172e-04  1.2189e-04  0:02:42 1357
  3063  1.8317e-03  4.8468e-04  1.9648e-04  1.7995e-03  4.4295e-04  1.2216e-04  0:02:10 1356
  3064  1.8551e-03  5.0750e-04  1.9488e-04  1.8228e-03  4.4408e-04  1.2237e-04  0:01:44 1355
  3065  1.8744e-03  5.0862e-04  1.9318e-04  1.8424e-03  4.4516e-04  1.2257e-04  0:01:23 1354
  3066  1.8940e-03  5.1782e-04  1.9269e-04  1.8624e-03  4.4616e-04  1.2275e-04  0:01:06 1353
  3067  1.9130e-03  5.2067e-04  1.9367e-04  1.8816e-03  4.4711e-04  1.2289e-04  0:00:53 1352

  iter  continuity  x-velocity  y-velocity      energy           k       omega     time/iter
  3068  1.9302e-03  5.0544e-04  1.9368e-04  1.8989e-03  4.4799e-04  1.2294e-04  0:05:12 1351
  3069  1.9471e-03  4.9913e-04  1.9040e-04  1.9157e-03  4.4879e-04  1.2315e-04  0:04:10 1350
  3070  1.9644e-03  5.1130e-04  1.9055e-04  1.9329e-03  4.4949e-04  1.2327e-04  0:03:20 1349
  3071  1.9819e-03  5.4062e-04  1.9054e-04  1.9504e-03  4.5010e-04  1.2328e-04  0:02:40 1348
  3072  1.9946e-03  5.5262e-04  1.9073e-04  1.9634e-03  4.5067e-04  1.2318e-04  0:02:08 1347
  3073  2.0064e-03  5.5385e-04  1.9148e-04  1.9756e-03  4.5120e-04  1.2328e-04  0:01:42 1346
  3074  2.0174e-03  5.6648e-04  1.9237e-04  1.9867e-03  4.5169e-04  1.2336e-04  0:01:22 1345
  3075  2.0274e-03  5.8452e-04  1.9413e-04  1.9969e-03  4.5215e-04  1.2336e-04  0:01:05 1344
  3076  2.0355e-03  5.7879e-04  1.9563e-04  2.0049e-03  4.5250e-04  1.2333e-04  0:00:52 1343
  3077  2.0437e-03  5.9728e-04  1.9708e-04  2.0134e-03  4.5274e-04  1.2331e-04  0:00:42 1342
  3078  2.0484e-03  6.0388e-04  1.9887e-04  2.0183e-03  4.5286e-04  1.2335e-04  0:05:02 1341

  iter  continuity  x-velocity  y-velocity      energy           k       omega     time/iter
  3079  2.0507e-03  6.0001e-04  1.9952e-04  2.0210e-03  4.5289e-04  1.2346e-04  0:04:01 1340
  3080  2.0540e-03  6.0001e-04  2.0110e-04  2.0243e-03  4.5283e-04  1.2361e-04  0:03:13 1339
  3081  2.0569e-03  5.9366e-04  2.0295e-04  2.0270e-03  4.5275e-04  1.2380e-04  0:02:34 1338
  3082  2.0619e-03  6.2150e-04  2.0392e-04  2.0317e-03  4.5266e-04  1.2410e-04  0:02:03 1337
  3083  2.0665e-03  6.6109e-04  2.0286e-04  2.0356e-03  4.5255e-04  1.2443e-04  0:01:38 1336
  3084  2.0668e-03  6.9219e-04  2.0156e-04  2.0361e-03  4.5243e-04  1.2473e-04  0:01:19 1335
  3085  2.0563e-03  6.3613e-04  1.9889e-04  2.0266e-03  4.5228e-04  1.2486e-04  0:01:03 1334
  3086  2.0501e-03  6.0812e-04  1.9727e-04  2.0211e-03  4.5210e-04  1.2535e-04  0:00:50 1333
  3087  2.0433e-03  5.9245e-04  1.9407e-04  2.0149e-03  4.5189e-04  1.2572e-04  0:00:40 1332
  3088  2.0370e-03  5.7790e-04  1.9128e-04  2.0088e-03  4.5164e-04  1.2600e-04  0:04:58 1331
  3089  2.0313e-03  5.7900e-04  1.9191e-04  2.0032e-03  4.5136e-04  1.2623e-04  0:03:58 1330

  iter  continuity  x-velocity  y-velocity      energy           k       omega     time/iter
  3090  2.0249e-03  5.7501e-04  1.9320e-04  1.9967e-03  4.5103e-04  1.2645e-04  0:03:11 1329
  3091  2.0173e-03  5.7121e-04  1.9353e-04  1.9892e-03  4.5063e-04  1.2662e-04  0:02:32 1328
  3092  2.0084e-03  5.4920e-04  1.9048e-04  1.9802e-03  4.5015e-04  1.2678e-04  0:02:02 1327
  3093  1.9998e-03  5.4576e-04  1.8944e-04  1.9717e-03  4.4957e-04  1.2690e-04  0:01:37 1326
  3094  1.9919e-03  5.5460e-04  1.8923e-04  1.9637e-03  4.4889e-04  1.2709e-04  0:01:18 1325
  3095  1.9830e-03  5.5754e-04  1.8704e-04  1.9548e-03  4.4815e-04  1.2726e-04  0:01:02 1324
  3096  1.9743e-03  5.5879e-04  1.8522e-04  1.9459e-03  4.4736e-04  1.2741e-04  0:00:50 1323
  3097  1.9652e-03  5.5510e-04  1.8674e-04  1.9364e-03  4.4649e-04  1.2751e-04  0:00:40 1322
  3098  1.9562e-03  5.5063e-04  1.8936e-04  1.9271e-03  4.4549e-04  1.2756e-04  0:04:56 1321
  3099  1.9484e-03  5.6719e-04  1.9077e-04  1.9190e-03  4.4439e-04  1.2758e-04  0:03:57 1320
  3100  1.9399e-03  5.8914e-04  1.9147e-04  1.9102e-03  4.4323e-04  1.2736e-04  0:03:09 1319

  iter  continuity  x-velocity  y-velocity      energy           k       omega     time/iter
  3101  1.9313e-03  6.1255e-04  1.9245e-04  1.9018e-03  4.4198e-04  1.2738e-04  0:02:31 1318
  3102  1.9202e-03  6.1199e-04  1.9247e-04  1.8908e-03  4.4072e-04  1.2735e-04  0:02:01 1317
  3103  1.9085e-03  6.0177e-04  1.8999e-04  1.8793e-03  4.3940e-04  1.2752e-04  0:01:37 1316
  3104  1.8971e-03  5.8253e-04  1.8636e-04  1.8681e-03  4.3798e-04  1.2766e-04  0:01:17 1315
  3105  1.8888e-03  5.8128e-04  1.8470e-04  1.8597e-03  4.3646e-04  1.2778e-04  0:01:02 1314
  3106  1.8822e-03  5.8982e-04  1.8490e-04  1.8530e-03  4.3484e-04  1.2786e-04  0:00:49 1313
  3107  1.8770e-03  6.0688e-04  1.8303e-04  1.8475e-03  4.3319e-04  1.2789e-04  0:00:39 1312
  3108  1.8703e-03  6.0177e-04  1.8133e-04  1.8412e-03  4.3157e-04  1.2795e-04  0:00:32 1311
  3109  1.8661e-03  6.0261e-04  1.8148e-04  1.8370e-03  4.2988e-04  1.2799e-04  0:04:47 1310
  3110  1.8629e-03  5.9932e-04  1.8300e-04  1.8341e-03  4.2817e-04  1.2799e-04  0:03:50 1309
  3111  1.8613e-03  5.9047e-04  1.8547e-04  1.8326e-03  4.2643e-04  1.2802e-04  0:03:04 1308

  iter  continuity  x-velocity  y-velocity      energy           k       omega     time/iter
  3112  1.8633e-03  5.9659e-04  1.8639e-04  1.8347e-03  4.2467e-04  1.2804e-04  0:02:27 1307
  3113  1.8691e-03  6.1816e-04  1.8596e-04  1.8405e-03  4.2285e-04  1.2801e-04  0:01:57 1306
  3114  1.8739e-03  6.2049e-04  1.8408e-04  1.8455e-03  4.2096e-04  1.2795e-04  0:01:34 1305
  3115  1.8810e-03  6.1656e-04  1.8284e-04  1.8527e-03  4.1897e-04  1.2781e-04  0:01:15 1304
  3116  1.8908e-03  6.1126e-04  1.8571e-04  1.8625e-03  4.1692e-04  1.2760e-04  0:01:00 1303
  3117  1.9030e-03  6.1142e-04  1.8886e-04  1.8745e-03  4.1478e-04  1.2716e-04  0:00:48 1302
  3118  1.9177e-03  6.1426e-04  1.9046e-04  1.8890e-03  4.1256e-04  1.2700e-04  0:00:38 1301
  3119  1.9353e-03  6.3124e-04  1.8892e-04  1.9062e-03  4.1024e-04  1.2685e-04  0:04:51 1300
  3120  1.9521e-03  6.2464e-04  1.8726e-04  1.9229e-03  4.0782e-04  1.2669e-04  0:03:52 1299
  3121  1.9744e-03  6.4467e-04  1.9061e-04  1.9449e-03  4.0529e-04  1.2649e-04  0:03:06 1298
  3122  1.9988e-03  6.8117e-04  1.9326e-04  1.9688e-03  4.0267e-04  1.2621e-04  0:02:28 1297

  iter  continuity  x-velocity  y-velocity      energy           k       omega     time/iter
[...]
  3885  1.3561e-03  3.4873e-04  1.2548e-04  1.3124e-03  2.0577e-04  9.6244e-05  0:01:36  534
  3886  1.3545e-03  3.5467e-04  1.2532e-04  1.3106e-03  2.0562e-04  9.6622e-05  0:01:17  533
  3887  1.3526e-03  3.4968e-04  1.2580e-04  1.3086e-03  2.0547e-04  9.6970e-05  0:01:01  532
  3888  1.3511e-03  3.3994e-04  1.2685e-04  1.3068e-03  2.0534e-04  9.7262e-05  0:00:49  531
  3889  1.3499e-03  3.4016e-04  1.2732e-04  1.3054e-03  2.0523e-04  9.7531e-05  0:00:39  530
  3890  1.3481e-03  3.3590e-04  1.2722e-04  1.3036e-03  2.0515e-04  9.7777e-05  0:00:31  529
  3891  1.3464e-03  3.3286e-04  1.2664e-04  1.3017e-03  2.0509e-04  9.7945e-05  0:00:25  528
  3892  1.3444e-03  3.3038e-04  1.2644e-04  1.2995e-03  2.0508e-04  9.8045e-05  0:00:20  527

  iter  continuity  x-velocity  y-velocity      energy           k       omega     time/iter
  3893  1.3422e-03  3.3138e-04  1.2754e-04  1.2972e-03  2.0512e-04  9.8078e-05  0:02:01  526
  3894  1.3398e-03  3.3202e-04  1.2889e-04  1.2944e-03  2.0526e-04  9.8115e-05  0:01:37  525
  3895  1.3366e-03  3.3996e-04  1.3039e-04  1.2911e-03  2.0541e-04  9.8114e-05  0:01:17  524
  3896  1.3324e-03  3.4371e-04  1.3214e-04  1.2868e-03  2.0560e-04  9.8075e-05  0:01:02  523
  3897  1.3271e-03  3.4584e-04  1.3395e-04  1.2815e-03  2.0581e-04  9.7973e-05  0:00:49  522
  3898  1.3214e-03  3.5481e-04  1.3439e-04  1.2758e-03  2.0607e-04  9.7852e-05  0:00:39  521
  3899  1.3142e-03  3.5336e-04  1.3422e-04  1.2687e-03  2.0627e-04  9.7708e-05  0:00:31  520
  3900  1.3064e-03  3.4706e-04  1.3409e-04  1.2609e-03  2.0645e-04  9.7528e-05  0:00:25  519
  3901  1.2984e-03  3.3932e-04  1.3331e-04  1.2529e-03  2.0663e-04  9.7374e-05  0:00:20  518
  3902  1.2913e-03  3.4552e-04  1.3328e-04  1.2457e-03  2.0682e-04  9.7272e-05  0:01:59  517
  3903  1.2841e-03  3.5266e-04  1.3366e-04  1.2386e-03  2.0702e-04  9.7265e-05  0:01:35  516

  iter  continuity  x-velocity  y-velocity      energy           k       omega     time/iter
  3904  1.2767e-03  3.5170e-04  1.3513e-04  1.2311e-03  2.0721e-04  9.7323e-05  0:01:16  515
  3905  1.2689e-03  3.4401e-04  1.3565e-04  1.2235e-03  2.0744e-04  9.7459e-05  0:01:01  514
  3906  1.2624e-03  3.4395e-04  1.3508e-04  1.2171e-03  2.0769e-04  9.7611e-05  0:00:49  513
  3907  1.2565e-03  3.3738e-04  1.3378e-04  1.2112e-03  2.0800e-04  9.7751e-05  0:00:39  512
  3908  1.2516e-03  3.4124e-04  1.3224e-04  1.2064e-03  2.0837e-04  9.7890e-05  0:00:31  511
  3909  1.2474e-03  3.4706e-04  1.3077e-04  1.2024e-03  2.0876e-04  9.8037e-05  0:00:25  510
  3910  1.2446e-03  3.5583e-04  1.2988e-04  1.1997e-03  2.0914e-04  9.8183e-05  0:00:20  509
  3911  1.2420e-03  3.4591e-04  1.2975e-04  1.1970e-03  2.0956e-04  9.8328e-05  0:00:16  508
  3912  1.2404e-03  3.5338e-04  1.2967e-04  1.1954e-03  2.1002e-04  9.8502e-05  0:00:13  507
  3913  1.2397e-03  3.6465e-04  1.2898e-04  1.1949e-03  2.1056e-04  9.8662e-05  0:01:51  506
  3914  1.2390e-03  3.6771e-04  1.2931e-04  1.1941e-03  2.1121e-04  9.8828e-05  0:01:29  505

  iter  continuity  x-velocity  y-velocity      energy           k       omega     time/iter
  3915  1.2386e-03  3.6003e-04  1.3018e-04  1.1937e-03  2.1196e-04  9.8959e-05  0:01:11  504
  3916  1.2387e-03  3.6987e-04  1.3047e-04  1.1940e-03  2.1281e-04  9.9058e-05  0:00:57  503
  3917  1.2396e-03  3.8454e-04  1.3057e-04  1.1950e-03  2.1370e-04  9.9116e-05  0:00:45  502
  3918  1.2395e-03  3.9086e-04  1.3083e-04  1.1950e-03  2.1466e-04  9.9114e-05  0:00:36  501
  3919  1.2382e-03  3.7865e-04  1.3100e-04  1.1938e-03  2.1569e-04  9.9098e-05  0:00:29  500
  3920  1.2366e-03  3.6455e-04  1.3040e-04  1.1923e-03  2.1676e-04  9.9068e-05  0:00:23  499
  3921  1.2353e-03  3.5470e-04  1.2997e-04  1.1911e-03  2.1786e-04  9.9035e-05  0:00:18  498
  3922  1.2341e-03  3.4738e-04  1.3012e-04  1.1900e-03  2.1897e-04  9.9004e-05  0:01:54  497
  3923  1.2335e-03  3.4568e-04  1.3128e-04  1.1895e-03  2.2012e-04  9.8983e-05  0:01:31  496
  3924  1.2327e-03  3.4076e-04  1.3252e-04  1.1889e-03  2.2134e-04  9.9009e-05  0:01:13  495
  3925  1.2321e-03  3.4144e-04  1.3316e-04  1.1887e-03  2.2265e-04  9.9077e-05  0:00:58  494

  iter  continuity  x-velocity  y-velocity      energy           k       omega     time/iter
  3926  1.2317e-03  3.4054e-04  1.3289e-04  1.1886e-03  2.2401e-04  9.9161e-05  0:00:46  493
  3927  1.2319e-03  3.4041e-04  1.3200e-04  1.1894e-03  2.2532e-04  9.9247e-05  0:00:37  492
  3928  1.2329e-03  3.4027e-04  1.3148e-04  1.1908e-03  2.2660e-04  9.9324e-05  0:00:30  491
  3929  1.2353e-03  3.4893e-04  1.3188e-04  1.1936e-03  2.2785e-04  9.9431e-05  0:00:24  490
  3930  1.2388e-03  3.5904e-04  1.3292e-04  1.1976e-03  2.2907e-04  9.9589e-05  0:00:19  489
  3931  1.2434e-03  3.6903e-04  1.3438e-04  1.2026e-03  2.3032e-04  9.9739e-05  0:00:15  488
  3932  1.2482e-03  3.7403e-04  1.3622e-04  1.2079e-03  2.3157e-04  9.9870e-05  0:00:12  487
  3933  1.2545e-03  3.8249e-04  1.3790e-04  1.2146e-03  2.3283e-04  9.9985e-05  0:01:47  486
  3934  1.2618e-03  3.8986e-04  1.3944e-04  1.2223e-03  2.3410e-04  1.0009e-04  0:01:25  485
  3935  1.2689e-03  3.8856e-04  1.3983e-04  1.2299e-03  2.3537e-04  1.0015e-04  0:01:08  484
  3936  1.2774e-03  3.9868e-04  1.3882e-04  1.2388e-03  2.3666e-04  1.0021e-04  0:00:54  483

  iter  continuity  x-velocity  y-velocity      energy           k       omega     time/iter
  3937  1.2869e-03  4.1356e-04  1.3833e-04  1.2487e-03  2.3794e-04  1.0022e-04  0:00:43  482
  3938  1.2962e-03  4.1844e-04  1.3930e-04  1.2584e-03  2.3921e-04  1.0015e-04  0:00:35  481
  3939  1.3053e-03  4.1918e-04  1.3970e-04  1.2679e-03  2.4054e-04  1.0002e-04  0:00:28  480
  3940  1.3132e-03  4.0685e-04  1.4010e-04  1.2763e-03  2.4187e-04  9.9864e-05  0:00:22  479
  3941  1.3214e-03  3.8856e-04  1.3908e-04  1.2849e-03  2.4322e-04  9.9679e-05  0:00:18  478
  3942  1.3315e-03  3.8987e-04  1.3898e-04  1.2954e-03  2.4457e-04  9.9483e-05  0:00:14  477
  3943  1.3418e-03  3.9006e-04  1.3856e-04  1.3062e-03  2.4591e-04  9.9264e-05  0:01:46  476
  3944  1.3516e-03  3.8073e-04  1.3799e-04  1.3164e-03  2.4727e-04  9.9053e-05  0:01:25  475
  3945  1.3628e-03  3.7843e-04  1.3796e-04  1.3280e-03  2.4859e-04  9.8807e-05  0:01:08  474
  3946  1.3743e-03  3.8150e-04  1.3888e-04  1.3399e-03  2.4986e-04  9.8530e-05  0:00:54  473
  3947  1.3862e-03  3.8899e-04  1.3948e-04  1.3523e-03  2.5109e-04  9.8355e-05  0:00:43  472

  iter  continuity  x-velocity  y-velocity      energy           k       omega     time/iter
  3948  1.3983e-03  3.9285e-04  1.4019e-04  1.3648e-03  2.5226e-04  9.8272e-05  0:00:35  471
  3949  1.4101e-03  3.8547e-04  1.4079e-04  1.3771e-03  2.5339e-04  9.8191e-05  0:00:28  470
  3950  1.4227e-03  3.9270e-04  1.4110e-04  1.3902e-03  2.5445e-04  9.8083e-05  0:00:22  469
  3951  1.4357e-03  4.0354e-04  1.4156e-04  1.4037e-03  2.5545e-04  9.7935e-05  0:00:18  468
  3952  1.4480e-03  4.0277e-04  1.4172e-04  1.4165e-03  2.5641e-04  9.7747e-05  0:01:47  467
  3953  1.4609e-03  3.9847e-04  1.4179e-04  1.4297e-03  2.5728e-04  9.7374e-05  0:01:26  466
  3954  1.4734e-03  3.9939e-04  1.4167e-04  1.4427e-03  2.5811e-04  9.7012e-05  0:01:08  465
  3955  1.4869e-03  4.0414e-04  1.4147e-04  1.4565e-03  2.5886e-04  9.6932e-05  0:00:55  464
  3956  1.5001e-03  4.0840e-04  1.4203e-04  1.4700e-03  2.5957e-04  9.6711e-05  0:00:44  463
  3957  1.5123e-03  3.9940e-04  1.4237e-04  1.4825e-03  2.6021e-04  9.6455e-05  0:00:35  462
  3958  1.5242e-03  3.8886e-04  1.4322e-04  1.4948e-03  2.6083e-04  9.6203e-05  0:00:28  461

  iter  continuity  x-velocity  y-velocity      energy           k       omega     time/iter
  3959  1.5367e-03  3.8367e-04  1.4288e-04  1.5075e-03  2.6140e-04  9.5926e-05  0:00:22  460
  3960  1.5490e-03  3.7679e-04  1.4218e-04  1.5203e-03  2.6193e-04  9.5387e-05  0:00:18  459
  3961  1.5616e-03  3.7446e-04  1.4105e-04  1.5332e-03  2.6240e-04  9.4890e-05  0:00:14  458
  3962  1.5743e-03  3.6792e-04  1.3958e-04  1.5462e-03  2.6281e-04  9.4721e-05  0:01:43  457
  3963  1.5874e-03  3.6907e-04  1.3857e-04  1.5595e-03  2.6316e-04  9.4505e-05  0:01:22  456
  3964  1.6005e-03  3.7432e-04  1.3842e-04  1.5728e-03  2.6346e-04  9.4268e-05  0:01:05  455
  3965  1.6147e-03  3.9655e-04  1.3852e-04  1.5873e-03  2.6370e-04  9.4033e-05  0:00:52  454
  3966  1.6284e-03  4.1889e-04  1.3843e-04  1.6013e-03  2.6388e-04  9.3642e-05  0:00:42  453
  3967  1.6403e-03  4.1614e-04  1.3864e-04  1.6134e-03  2.6399e-04  9.3160e-05  0:00:33  452
  3968  1.6513e-03  4.0072e-04  1.3895e-04  1.6246e-03  2.6404e-04  9.2669e-05  0:00:27  451
  3969  1.6624e-03  3.8953e-04  1.3901e-04  1.6359e-03  2.6403e-04  9.2278e-05  0:00:21  450

  iter  continuity  x-velocity  y-velocity      energy           k       omega     time/iter
  3970  1.6735e-03  3.8863e-04  1.3810e-04  1.6472e-03  2.6393e-04  9.1631e-05  0:00:17  449
  3971  1.6841e-03  3.8605e-04  1.3694e-04  1.6580e-03  2.6380e-04  9.1032e-05  0:00:14  448
  3972  1.6942e-03  3.7389e-04  1.3584e-04  1.6683e-03  2.6359e-04  9.0442e-05  0:01:40  447
  3973  1.7040e-03  3.6989e-04  1.3494e-04  1.6783e-03  2.6332e-04  8.9877e-05  0:01:20  446
  3974  1.7132e-03  3.6550e-04  1.3408e-04  1.6877e-03  2.6301e-04  8.9525e-05  0:01:04  445
  3975  1.7220e-03  3.5975e-04  1.3386e-04  1.6966e-03  2.6260e-04  8.9164e-05  0:00:51  444
  3976  1.7304e-03  3.5557e-04  1.3400e-04  1.7052e-03  2.6213e-04  8.8700e-05  0:00:41  443
  3977  1.7387e-03  3.5274e-04  1.3416e-04  1.7136e-03  2.6162e-04  8.8223e-05  0:00:32  442
  3978  1.7465e-03  3.5244e-04  1.3500e-04  1.7215e-03  2.6110e-04  8.7760e-05  0:00:26  441
  3979  1.7545e-03  3.5539e-04  1.3498e-04  1.7296e-03  2.6055e-04  8.7318e-05  0:01:49  440
  3980  1.7622e-03  3.6235e-04  1.3521e-04  1.7373e-03  2.5996e-04  8.6656e-05  0:01:27  439

  iter  continuity  x-velocity  y-velocity      energy           k       omega     time/iter
  3981  1.7699e-03  3.7462e-04  1.3546e-04  1.7451e-03  2.5932e-04  8.6122e-05  0:01:09  438
  3982  1.7779e-03  3.9627e-04  1.3571e-04  1.7532e-03  2.5865e-04  8.5874e-05  0:00:55  437
  3983  1.7839e-03  3.9528e-04  1.3487e-04  1.7593e-03  2.5792e-04  8.5614e-05  0:00:44  436
  3984  1.7893e-03  3.8978e-04  1.3372e-04  1.7648e-03  2.5711e-04  8.5354e-05  0:00:35  435
  3985  1.7942e-03  3.8074e-04  1.3241e-04  1.7698e-03  2.5628e-04  8.4998e-05  0:00:28  434
  3986  1.7987e-03  3.7348e-04  1.3104e-04  1.7744e-03  2.5539e-04  8.4606e-05  0:00:22  433
  3987  1.8029e-03  3.6908e-04  1.2905e-04  1.7787e-03  2.5445e-04  8.4158e-05  0:00:18  432
  3988  1.8070e-03  3.6915e-04  1.2726e-04  1.7829e-03  2.5346e-04  8.3630e-05  0:00:14  431
  3989  1.8106e-03  3.6679e-04  1.2618e-04  1.7865e-03  2.5242e-04  8.2995e-05  0:01:37  430
  3990  1.8138e-03  3.6396e-04  1.2585e-04  1.7897e-03  2.5138e-04  8.2564e-05  0:01:18  429
  3991  1.8168e-03  3.6258e-04  1.2520e-04  1.7926e-03  2.5028e-04  8.2267e-05  0:01:02  428

  iter  continuity  x-velocity  y-velocity      energy           k       omega     time/iter
  3992  1.8187e-03  3.5660e-04  1.2387e-04  1.7946e-03  2.4912e-04  8.1931e-05  0:00:50  427
  3993  1.8201e-03  3.5303e-04  1.2331e-04  1.7962e-03  2.4792e-04  8.1588e-05  0:00:40  426
  3994  1.8215e-03  3.5208e-04  1.2309e-04  1.7977e-03  2.4668e-04  8.1146e-05  0:00:32  425
  3995  1.8227e-03  3.5395e-04  1.2340e-04  1.7990e-03  2.4544e-04  8.0815e-05  0:00:25  424
  3996  1.8232e-03  3.4852e-04  1.2398e-04  1.7995e-03  2.4417e-04  8.0650e-05  0:00:20  423
  3997  1.8236e-03  3.4469e-04  1.2557e-04  1.7999e-03  2.4286e-04  8.0517e-05  0:00:16  422
  3998  1.8236e-03  3.4263e-04  1.2703e-04  1.8000e-03  2.4150e-04  8.0327e-05  0:00:13  421
  3999  1.8237e-03  3.4003e-04  1.2853e-04  1.8001e-03  2.4010e-04  8.0164e-05  0:01:34  420
  4000  1.8235e-03  3.3635e-04  1.2908e-04  1.7999e-03  2.3867e-04  7.9987e-05  0:01:15  419
  4001  1.8231e-03  3.3477e-04  1.2815e-04  1.7994e-03  2.3721e-04  7.9780e-05  0:01:00  418
  4002  1.8220e-03  3.3623e-04  1.2715e-04  1.7984e-03  2.3573e-04  7.9541e-05  0:00:48  417

  iter  continuity  x-velocity  y-velocity      energy           k       omega     time/iter
  4003  1.8207e-03  3.3402e-04  1.2570e-04  1.7971e-03  2.3419e-04  7.9281e-05  0:00:38  416
  4004  1.8188e-03  3.3136e-04  1.2434e-04  1.7954e-03  2.3260e-04  7.9024e-05  0:00:31  415
  4005  1.8168e-03  3.3589e-04  1.2355e-04  1.7935e-03  2.3097e-04  7.8754e-05  0:00:24  414
  4006  1.8146e-03  3.4515e-04  1.2250e-04  1.7914e-03  2.2932e-04  7.8545e-05  0:00:19  413
  4007  1.8123e-03  3.5425e-04  1.2134e-04  1.7892e-03  2.2763e-04  7.8389e-05  0:00:16  412
  4008  1.8091e-03  3.4854e-04  1.1933e-04  1.7860e-03  2.2594e-04  7.8172e-05  0:01:35  411
  4009  1.8053e-03  3.2841e-04  1.1919e-04  1.7821e-03  2.2429e-04  7.7840e-05  0:01:15  410
  4010  1.8017e-03  3.2286e-04  1.2002e-04  1.7783e-03  2.2261e-04  7.7529e-05  0:01:00  409
  4011  1.7974e-03  3.2785e-04  1.2133e-04  1.7740e-03  2.2089e-04  7.7192e-05  0:00:48  408
  4012  1.7926e-03  3.3511e-04  1.2159e-04  1.7692e-03  2.1913e-04  7.6823e-05  0:00:38  407
  4013  1.7874e-03  3.5376e-04  1.2150e-04  1.7641e-03  2.1735e-04  7.6544e-05  0:00:31  406

  iter  continuity  x-velocity  y-velocity      energy           k       omega     time/iter
  4014  1.7817e-03  3.6388e-04  1.2183e-04  1.7586e-03  2.1554e-04  7.6326e-05  0:00:24  405
  4015  1.7749e-03  3.5211e-04  1.1882e-04  1.7519e-03  2.1371e-04  7.6090e-05  0:00:19  404
  4016  1.7686e-03  3.5511e-04  1.1475e-04  1.7455e-03  2.1190e-04  7.5792e-05  0:00:16  403
  4017  1.7608e-03  3.4644e-04  1.1277e-04  1.7378e-03  2.1009e-04  7.5529e-05  0:00:12  402
  4018  1.7530e-03  3.3918e-04  1.1150e-04  1.7300e-03  2.0826e-04  7.5308e-05  0:01:30  401
  4019  1.7447e-03  3.3279e-04  1.1067e-04  1.7219e-03  2.0642e-04  7.5096e-05  0:01:12  400
  4020  1.7362e-03  3.3335e-04  1.0966e-04  1.7135e-03  2.0458e-04  7.4883e-05  0:00:57  399
  4021  1.7272e-03  3.2715e-04  1.1055e-04  1.7045e-03  2.0277e-04  7.4692e-05  0:00:46  398
  4022  1.7181e-03  3.2379e-04  1.1274e-04  1.6954e-03  2.0097e-04  7.4501e-05  0:00:37  397
  4023  1.7082e-03  3.2019e-04  1.1401e-04  1.6855e-03  1.9916e-04  7.4219e-05  0:00:29  396
  4024  1.6977e-03  3.1615e-04  1.1461e-04  1.6751e-03  1.9736e-04  7.3947e-05  0:00:23  395

  iter  continuity  x-velocity  y-velocity      energy           k       omega     time/iter
  4025  1.6867e-03  3.1153e-04  1.1426e-04  1.6642e-03  1.9555e-04  7.3788e-05  0:00:19  394
  4026  1.6755e-03  3.1129e-04  1.1158e-04  1.6531e-03  1.9373e-04  7.3667e-05  0:00:15  393
  4027  1.6640e-03  3.0968e-04  1.0930e-04  1.6417e-03  1.9191e-04  7.3600e-05  0:01:30  392
  4028  1.6517e-03  2.9882e-04  1.0970e-04  1.6294e-03  1.9014e-04  7.3522e-05  0:01:12  391
  4029  1.6390e-03  2.8652e-04  1.1015e-04  1.6167e-03  1.8834e-04  7.3393e-05  0:00:57  390
  4030  1.6267e-03  2.9192e-04  1.1015e-04  1.6045e-03  1.8654e-04  7.3164e-05  0:00:46  389
  4031  1.6147e-03  3.0212e-04  1.1020e-04  1.5923e-03  1.8474e-04  7.2934e-05  0:00:37  388
  4032  1.6022e-03  3.0832e-04  1.0887e-04  1.5799e-03  1.8295e-04  7.2734e-05  0:00:29  387
  4033  1.5897e-03  3.1289e-04  1.0684e-04  1.5674e-03  1.8118e-04  7.2559e-05  0:00:23  386
  4034  1.5769e-03  3.1934e-04  1.0511e-04  1.5546e-03  1.7938e-04  7.2332e-05  0:00:19  385
  4035  1.5638e-03  3.2413e-04  1.0232e-04  1.5415e-03  1.7758e-04  7.2101e-05  0:00:15  384

  iter  continuity  x-velocity  y-velocity      energy           k       omega     time/iter
  4036  1.5501e-03  3.2107e-04  9.9620e-05  1.5281e-03  1.7578e-04  7.1880e-05  0:00:12  383
  4037  1.5363e-03  3.1496e-04  9.7696e-05  1.5144e-03  1.7396e-04  7.1588e-05  0:01:26  382
  4038  1.5216e-03  2.9410e-04  9.5844e-05  1.5000e-03  1.7214e-04  7.1314e-05  0:01:08  381
  4039  1.5077e-03  2.7769e-04  9.4845e-05  1.4863e-03  1.7041e-04  7.1094e-05  0:00:55  380
  4040  1.4943e-03  2.7332e-04  9.4395e-05  1.4731e-03  1.6872e-04  7.0909e-05  0:00:44  379
  4041  1.4813e-03  2.7256e-04  9.3957e-05  1.4601e-03  1.6705e-04  7.0714e-05  0:00:35  378
  4042  1.4687e-03  2.7288e-04  9.5490e-05  1.4476e-03  1.6542e-04  7.0592e-05  0:00:28  377
  4043  1.4565e-03  2.7610e-04  9.8288e-05  1.4353e-03  1.6383e-04  7.0442e-05  0:00:22  376
  4044  1.4443e-03  2.7789e-04  9.9671e-05  1.4232e-03  1.6230e-04  7.0290e-05  0:00:18  375
  4045  1.4320e-03  2.7491e-04  9.8977e-05  1.4110e-03  1.6087e-04  7.0125e-05  0:00:14  374
  4046  1.4194e-03  2.7068e-04  9.7607e-05  1.3986e-03  1.5945e-04  6.9973e-05  0:00:11  373

  iter  continuity  x-velocity  y-velocity      energy           k       omega     time/iter
  4047  1.4069e-03  2.6805e-04  9.5032e-05  1.3862e-03  1.5808e-04  6.9765e-05  0:01:23  372
  4048  1.3946e-03  2.6540e-04  9.2695e-05  1.3740e-03  1.5672e-04  6.9520e-05  0:01:07  371
  4049  1.3822e-03  2.7053e-04  9.1016e-05  1.3618e-03  1.5536e-04  6.9192e-05  0:00:53  370
  4050  1.3697e-03  2.7608e-04  8.9545e-05  1.3494e-03  1.5402e-04  6.8762e-05  0:00:42  369
  4051  1.3568e-03  2.7995e-04  8.8533e-05  1.3366e-03  1.5268e-04  6.8430e-05  0:00:34  368
  4052  1.3431e-03  2.7199e-04  8.7667e-05  1.3231e-03  1.5140e-04  6.8154e-05  0:00:27  367
  4053  1.3297e-03  2.6721e-04  8.6404e-05  1.3099e-03  1.5012e-04  6.7835e-05  0:00:22  366
  4054  1.3163e-03  2.6311e-04  8.4957e-05  1.2966e-03  1.4891e-04  6.7502e-05  0:00:17  365
  4055  1.3027e-03  2.5757e-04  8.4394e-05  1.2831e-03  1.4774e-04  6.7056e-05  0:00:14  364
  4056  1.2891e-03  2.5835e-04  8.3907e-05  1.2696e-03  1.4663e-04  6.6664e-05  0:01:24  363
  4057  1.2754e-03  2.5626e-04  8.3823e-05  1.2560e-03  1.4556e-04  6.6329e-05  0:01:07  362

  iter  continuity  x-velocity  y-velocity      energy           k       omega     time/iter
  4058  1.2620e-03  2.6073e-04  8.3771e-05  1.2427e-03  1.4454e-04  6.6017e-05  0:00:53  361
  4059  1.2486e-03  2.6831e-04  8.3638e-05  1.2294e-03  1.4359e-04  6.5708e-05  0:00:42  360
  4060  1.2346e-03  2.6820e-04  8.2927e-05  1.2155e-03  1.4269e-04  6.5398e-05  0:00:34  359
  4061  1.2204e-03  2.6469e-04  8.2285e-05  1.2015e-03  1.4183e-04  6.5112e-05  0:00:27  358
  4062  1.2062e-03  2.6873e-04  8.2540e-05  1.1875e-03  1.4102e-04  6.4826e-05  0:00:22  357
  4063  1.1923e-03  2.6911e-04  8.4500e-05  1.1737e-03  1.4026e-04  6.4581e-05  0:00:17  356
  4064  1.1780e-03  2.5801e-04  8.8884e-05  1.1593e-03  1.3957e-04  6.4387e-05  0:00:14  355
  4065  1.1633e-03  2.4580e-04  9.0705e-05  1.1448e-03  1.3898e-04  6.4241e-05  0:01:22  354
  4066  1.1492e-03  2.4463e-04  8.9968e-05  1.1307e-03  1.3848e-04  6.4160e-05  0:01:05  353
  4067  1.1350e-03  2.4743e-04  8.7717e-05  1.1165e-03  1.3807e-04  6.4118e-05  0:00:52  352
  4068  1.1210e-03  2.4633e-04  8.6926e-05  1.1026e-03  1.3776e-04  6.4037e-05  0:00:41  351

  iter  continuity  x-velocity  y-velocity      energy           k       omega     time/iter
  4069  1.1069e-03  2.2895e-04  8.6779e-05  1.0885e-03  1.3761e-04  6.3916e-05  0:00:33  350
  4070  1.0931e-03  2.2319e-04  8.7860e-05  1.0747e-03  1.3759e-04  6.3765e-05  0:00:26  349
  4071  1.0794e-03  2.1799e-04  8.7835e-05  1.0609e-03  1.3765e-04  6.3557e-05  0:00:21  348
  4072  1.0656e-03  2.2093e-04  8.7032e-05  1.0472e-03  1.3778e-04  6.3294e-05  0:00:17  347
  4073  1.0520e-03  2.2634e-04  8.5675e-05  1.0337e-03  1.3789e-04  6.2959e-05  0:00:13  346
  4074  1.0382e-03  2.3485e-04  8.4516e-05  1.0201e-03  1.3805e-04  6.2682e-05  0:00:11  345
  4075  1.0249e-03  2.4470e-04  8.3784e-05  1.0069e-03  1.3825e-04  6.2424e-05  0:01:17  344
  4076  1.0118e-03  2.3665e-04  8.2806e-05  9.9379e-04  1.3847e-04  6.2054e-05  0:01:02  343
  4077  9.9896e-04  2.2662e-04  8.1077e-05  9.8090e-04  1.3873e-04  6.1777e-05  0:00:49  342
! 4077 solution is converged

> /plot/plot yes loading.txt yes yes no no absolute-pressure yes 1 0 upper-blade ()

> exit 
Posting ANSYS Product Improvement Program performance data 
Done.
yes
