
              Welcome to ANSYS Fluent 2021 R2

              Copyright 1987-2021 ANSYS, Inc. All Rights Reserved.
              Unauthorized use, distribution or duplication is prohibited.
              This product is subject to U.S. laws governing export and re-export.
              For full Legal Notice, see documentation.

Build Time: May 28 2021 13:54:56 EDT  Build Id: 10201  
 

     --------------------------------------------------------------
     This is an academic version of ANSYS FLUENT. Usage of this product
     license is limited to the terms and conditions specified in your ANSYS
     license form, additional terms section.
     --------------------------------------------------------------
Host spawning Node 0 on machine "WL-CH-009" (win64).

-------------------------------------------------------------------------------
ID    Hostname   Core   O.S.         PID    Vendor                       
-------------------------------------------------------------------------------
n31   WL-CH-009  32/36  Windows-x64  23984  Intel(R) Xeon(R) W-2295      
n30   WL-CH-009  31/36  Windows-x64  25448  Intel(R) Xeon(R) W-2295      
n29   WL-CH-009  30/36  Windows-x64  16488  Intel(R) Xeon(R) W-2295      
n28   WL-CH-009  29/36  Windows-x64  8688   Intel(R) Xeon(R) W-2295      
n27   WL-CH-009  28/36  Windows-x64  8704   Intel(R) Xeon(R) W-2295      
n26   WL-CH-009  27/36  Windows-x64  42332  Intel(R) Xeon(R) W-2295      
n25   WL-CH-009  26/36  Windows-x64  23596  Intel(R) Xeon(R) W-2295      
n24   WL-CH-009  25/36  Windows-x64  16624  Intel(R) Xeon(R) W-2295      
n23   WL-CH-009  24/36  Windows-x64  38512  Intel(R) Xeon(R) W-2295      
n22   WL-CH-009  23/36  Windows-x64  26540  Intel(R) Xeon(R) W-2295      
n21   WL-CH-009  22/36  Windows-x64  38812  Intel(R) Xeon(R) W-2295      
n20   WL-CH-009  21/36  Windows-x64  35888  Intel(R) Xeon(R) W-2295      
n19   WL-CH-009  20/36  Windows-x64  15868  Intel(R) Xeon(R) W-2295      
n18   WL-CH-009  19/36  Windows-x64  36532  Intel(R) Xeon(R) W-2295      
n17   WL-CH-009  18/36  Windows-x64  27072  Intel(R) Xeon(R) W-2295      
n16   WL-CH-009  17/36  Windows-x64  41716  Intel(R) Xeon(R) W-2295      
n15   WL-CH-009  16/36  Windows-x64  41496  Intel(R) Xeon(R) W-2295      
n14   WL-CH-009  15/36  Windows-x64  4180   Intel(R) Xeon(R) W-2295      
n13   WL-CH-009  14/36  Windows-x64  36796  Intel(R) Xeon(R) W-2295      
n12   WL-CH-009  13/36  Windows-x64  43636  Intel(R) Xeon(R) W-2295      
-------------------------------------------------------------------------------
ID    Hostname   Core   O.S.         PID    Vendor                       
-------------------------------------------------------------------------------
n11   WL-CH-009  12/36  Windows-x64  35996  Intel(R) Xeon(R) W-2295      
n10   WL-CH-009  11/36  Windows-x64  33152  Intel(R) Xeon(R) W-2295      
n9    WL-CH-009  10/36  Windows-x64  35804  Intel(R) Xeon(R) W-2295      
n8    WL-CH-009  9/36   Windows-x64  4964   Intel(R) Xeon(R) W-2295      
n7    WL-CH-009  8/36   Windows-x64  22476  Intel(R) Xeon(R) W-2295      
n6    WL-CH-009  7/36   Windows-x64  32424  Intel(R) Xeon(R) W-2295      
n5    WL-CH-009  6/36   Windows-x64  17156  Intel(R) Xeon(R) W-2295      
n4    WL-CH-009  5/36   Windows-x64  16200  Intel(R) Xeon(R) W-2295      
n3    WL-CH-009  4/36   Windows-x64  28784  Intel(R) Xeon(R) W-2295      
n2    WL-CH-009  3/36   Windows-x64  40456  Intel(R) Xeon(R) W-2295      
n1    WL-CH-009  2/36   Windows-x64  40940  Intel(R) Xeon(R) W-2295      
n0*   WL-CH-009  1/36   Windows-x64  45788  Intel(R) Xeon(R) W-2295      
host  WL-CH-009         Windows-x64  19364  Intel(R) Xeon(R) W-2295      

MPI Option Selected: intel
Selected system interconnect: default
-------------------------------------------------------------------------------

Cleanup script file is E:\\MATLAB\\RANS_optimisation\\grid1\\cleanup-fluent-WL-CH-009-19364.bat

Posting ANSYS Product Improvement Program startup data
Done.

Reading journal file E:\MATLAB\RANS_optimisation\grid1\_read_fluent_case_.jou...

> ;Journal file automatically created by Fluent!


define/                 parallel/               server/
display/                plot/                   solve/
exit                    preferences/            surface/
file/                   print-license-usage     views/
mesh/                   report/

> (read-case-base "E:/MATLAB/RANS_optimisation/grid1/grid.msh")


> /file read-case "E:/MATLAB/RANS_optimisation/grid1/grid.msh"
Reading "E:/MATLAB/RANS_optimisation/grid1/grid.msh"...

Buffering for file scan...

   71748 quadrilateral cells, zone  8.
  143140 2D interior faces, zone  2.
Warning: Reversing 190 faces, zone  2.
     189 2D pressure-inlet faces, zone  3.
Warning: Reversing 189 faces, zone  3.
     381 2D pressure-outlet faces, zone  4.
Warning: Reversing 381 faces, zone  4.
     381 2D pressure-outlet faces, zone  5.
     165 2D pressure-outlet faces, zone  6.
     404 2D wall faces, zone  7.
Warning: Reversing 190 faces, zone  7.
   72508 nodes.

Building...
     mesh
	auto partitioning mesh by Metis (fast),
	distributing mesh
		parts................................,
		faces................................,
		nodes................................,
		cells................................,
        bandwidth reduction using Reverse Cuthill-McKee: 1506/54 = 27.8889
     materials,
     interface,
     domains,
     zones,
	fluid-8
	wall-7
	pressure-outlet-6
	pressure-outlet-5
	pressure-outlet-4
	pressure-inlet-3
	interior-2
     parallel,
Done.


> 
> (cx-gui-do cx-activate-item "Key Behavioral Changes*PanelButtons*PushButton1(OK)")
/define/boundary-conditions/modify-zones/zone-name 3 inlet 

> /define/boundary-conditions/modify-zones/zone-name 4 upper 

> /define/boundary-conditions/modify-zones/zone-name 5 lower 

> /define/boundary-conditions/modify-zones/zone-name 6 outlet

> /define/boundary-conditions/modify-zones/zone-name 7 blade

> /define/materials/change-create air air air is a fluid
yes 
Density
ideal-gas no data required.

yes 
Cp (Specific Heat)
constant 1005 
yes 
Thermal Conductivity
expression "DynamicViscosity*1005 [J/(kg K)]/0.72"
 yes 
Viscosity
sutherland three-coefficient-method 5.83247e-04 273 110.4 
no no no

Note: Enabling energy equation as required by material density method.

> /define/operating-conditions/operating-pressure 0

> /define/models/viscous/kw-sst? yes

> /define/boundary-conditions/zone-type inlet pressure-inlet 

> /define/boundary-conditions/pressure-inlet (inlet)
inlet yes no 74575.2 no 46984 no 300 no yes no no yes 0.5 1

> /define/boundary-conditions/zone-type outlet pressure-outlet 

> /define/boundary-conditions/pressure-inlet (inlet)
inlet yes no 74575.2 no 46984 no 300 no yes no no yes 0.5 1

> /define/boundary-conditions/pressure-inlet
(inlet)
zone id/name [inlet] inlet
Reference Frame: Absolute [yes] 
Use Profile for Gauge Total Pressure? [no] 
Gauge Total Pressure (in [Pa]) [74575.2] 
Use Profile for Supersonic/Initial Gauge Pressure? [no] 
Supersonic/Initial Gauge Pressure (in [Pa]) [46984] 
Use Profile for Total Temperature? [no] 
Total Temperature (in [K]) [300] 
Direction Specification Method: Direction Vector [no] 
Direction Specification Method: Normal to Boundary [yes] 
Turbulent Specification Method: K and Omega [no] 
Turbulent Specification Method: Intensity and Length Scale [no] 
Turbulent Specification Method: Intensity and Viscosity Ratio [yes] 
Turbulent Intensity (in [%]) [0.5] 
Turbulent Viscosity Ratio [1] 

> /define/boundary-conditions/bc-settings/pressure-outlet 0. 65 

> /define/boundary-conditions/pressure-outlet (outlet upper lower)
outlet yes no 46984 no 300 no yes no no yes 0.5 1 yes yes no no

//define/boundary-conditions/non-reflecting-bc/> /define/boundary-conditions/copy-bc outlet (upper lower)Copy outlet boundary conditions to lower
Copy outlet boundary conditions to upper


//define/boundary-conditions/non-reflecting-bc/> /define/boundary-conditions/wall (blade)
blade 0 no 0 no no no 0 no no no no 0 no 0.5 no 1

//define/boundary-conditions/non-reflecting-bc/> /solve/initialize/hyb-initialization
invalid command [hyb-initialization]

//define/boundary-conditions/non-reflecting-bc/> q

> q
Use "exit" to leave the main menu.

> q
Use "exit" to leave the main menu.

> /define/boundary-conditions/wall (blade)
blade 0 no 0 no no no 0 no no no no 0 no 0.5 no 1

> /solve/initialize/hyb-initialization
invalid command [hyb-initialization]

> /define

//define> 
beta-feature-access                             named-expressions/
boundary-conditions/                            operating-conditions/
custom-field-functions/                         overset-interfaces/
dynamic-mesh/                                   parameters/
enable-mesh-morpher-optimizer?                  profiles/
gap-model/                                      reference-frames/
injections/                                     set-unit-system
materials/                                      solution-strategy/
mesh-interfaces/                                units
mixing-planes/                                  user-defined/
models/

//define> solution-strategy

//define/solution-strategy> 
enable-strategy?

//define/solution-strategy> 
enable-strategy?

//define/solution-strategy> q

//define> models

//define/models> 
ablation?                                       radiation/
acoustics/                                      solidification-melting?
addon-module                                    solver/
axisymmetric?                                   species/
cht/                                            steady?
crevice-model?                                  structure/
dpm/                                            unsteady-1st-order?
energy?                                         unsteady-2nd-order-bounded?
heat-exchanger/                                 unsteady-2nd-order?
multiphase/                                     viscous/
potential-and-li-ion-battery?

//define/models> solver

//define/models/solver> 
density-based-explicit  density-based-implicit  pressure-based

//define/models/solver> density-based-implicit
Enable density-based-implicit solver? [no] yes

//define/models/solver> q

//define/models> q

//define> q

> /define/boundary-conditions/wall (blade)
blade 0 no 0 no no no 0 no no no no 0 no 0.5 no 1

> /solve/initialize/hyb-initialization
invalid command [hyb-initialization]

> /solve/initialize

//solve/initialize> 
init-flow-statistics    reference-frame         set-hyb-initialization
initialize-flow         repair-wall-distance
list-defaults           set-defaults/

//solve/initialize> q

> q
Use "exit" to leave the main menu.

> /define

//define> models

//define/models> solver

//define/models/solver> (cx-gui-do cx-set-list-tree-selections "NavigationPane*List_Tree1" (list "Solution|Initialization"))
(cx-gui-do cx-set-list-tree-selections "NavigationPane*List_Tree1" (list "Solution|Initialization"))
(cx-gui-do cx-activate-item "NavigationPane*List_Tree1")
(cx-gui-do cx-set-list-tree-selections "NavigationPane*List_Tree1" (list "Solution|Initialization"))
(cx-gui-do cx-set-real-entry-list "Solution Initialization*Table1*Table7(Initial Values)*RealEntry1(Gauge Pressure)" '( 45000))
(cx-gui-do cx-activate-item "Solution Initialization*Table1*Table7(Initial Values)*RealEntry1(Gauge Pressure)")
(cx-gui-do cx-activate-item "Solution Initialization*Table1*Frame9*PushButton1(Initialize)")
(cx-gui-do cx-set-toggle-button2 "Solution Initialization*Table1*ToggleBox3(Initialization Methods)*Hybrid  Initialization" #t)
(cx-gui-do cx-activate-item "Solution Initialization*Table1*ToggleBox3(Initialization Methods)*Hybrid  Initialization")
(cx-gui-do cx-set-toggle-button2 "Solution Initialization*Table1*ToggleBox3(Initialization Methods)*Standard Initialization" #t)
(cx-gui-do cx-activate-item "Solution Initialization*Table1*ToggleBox3(Initialization Methods)*Standard Initialization")
(cx-gui-do cx-set-list-selections "Solution Initialization*Table1*DropDownList1(Compute from)" '( 2))
(cx-gui-do cx-activate-item "Solution Initialization*Table1*DropDownList1(Compute from)")
(cx-gui-do cx-activate-item "Solution Initialization*Table1*Frame9*PushButton1(Initialize)")
(cx-gui-do cx-activate-item "Question*OK")
(cx-gui-do cx-set-list-tree-selections "NavigationPane*List_Tree1" (list "Solution|Run Calculation"))
(cx-gui-do cx-set-list-tree-selections "NavigationPane*List_Tree1" (list "Solution|Run Calculation"))
(cx-gui-do cx-activate-item "NavigationPane*List_Tree1")
(cx-gui-do cx-set-list-tree-selections "NavigationPane*List_Tree1" (list "Solution|Run Calculation"))
(cx-gui-do cx-set-integer-entry "Run Calculation*Table1*Table3(Parameters)*Table1*Table1*IntegerEntry1(Number of Iterations)" 1000)
(cx-gui-do cx-activate-item "Run Calculation*Table1*Table3(Parameters)*Table1*Table1*IntegerEntry1(Number of Iterations)")
(cx-gui-do cx-activate-item "Run Calculation*Table1*Table6(Solution Advancement)*Table1*PushButton1(Calculate)")


  iter  continuity  x-velocity  y-velocity      energy           k       omega     time/iter
     1  1.0000e+00  1.0000e+00  1.0000e+00  1.0000e+00  2.1695e-01  1.3768e-01  0:16:39  999
     2  7.8182e-01  8.4660e-01  6.5785e-01  9.5040e-01  1.7734e-01  1.1255e-01  0:16:38  998
     3  5.3448e-01  8.6322e-01  5.1901e-01  7.0651e-01  1.5630e-01  9.5273e-02  0:13:18  997
     4  3.2059e-01  4.2894e-01  3.1301e-01  3.8343e-01  1.3435e-01  8.2511e-02  0:10:37  996
     5  2.5305e-01  2.5714e-01  2.0977e-01  3.0325e-01  1.0724e-01  7.2572e-02  0:08:29  995
     6  1.9637e-01  1.7163e-01  1.5530e-01  2.3948e-01  7.6762e-02  6.4551e-02  0:10:06  994
     7  1.6492e-01  1.3294e-01  1.2351e-01  2.0021e-01  5.6092e-02  5.7969e-02  0:08:04  993
     8  1.3115e-01  1.0618e-01  9.9987e-02  1.5749e-01  5.6937e-02  5.2487e-02  0:06:27  992
     9  1.0394e-01  8.1482e-02  8.1004e-02  1.1976e-01  6.8128e-02  4.7858e-02  0:05:09  991
    10  8.7996e-02  6.4746e-02  6.6591e-02  1.0090e-01  7.9823e-02  4.3955e-02  0:04:07  990
    11  7.8786e-02  5.3646e-02  5.5435e-02  9.1994e-02  8.8448e-02  4.0736e-02  0:03:18  989

  iter  continuity  x-velocity  y-velocity      energy           k       omega     time/iter
    12  7.2870e-02  4.5575e-02  4.6830e-02  8.6757e-02  9.2691e-02  3.7982e-02  0:02:38  988
    13  6.8785e-02  4.0126e-02  4.0727e-02  8.3411e-02  9.2582e-02  3.5598e-02  0:02:06  987
    14  6.5807e-02  3.6604e-02  3.6290e-02  8.1148e-02  8.8528e-02  3.3495e-02  0:01:41  986
    15  6.3416e-02  3.3917e-02  3.3288e-02  7.9517e-02  8.1467e-02  3.1579e-02  0:01:21  985
    16  6.1204e-02  3.1870e-02  3.1550e-02  7.8082e-02  7.2594e-02  2.9836e-02  0:01:04  984
    17  5.9492e-02  3.0871e-02  3.0462e-02  7.6996e-02  6.2910e-02  2.8249e-02  0:00:51  983
    18  5.7963e-02  3.0630e-02  2.9763e-02  7.5763e-02  5.3623e-02  2.6787e-02  0:03:58  982
    19  5.6167e-02  3.0460e-02  2.9485e-02  7.3991e-02  4.5671e-02  2.5439e-02  0:03:10  981
    20  5.4360e-02  3.0564e-02  2.9094e-02  7.1854e-02  3.9369e-02  2.4193e-02  0:02:32  980
    21  5.2391e-02  3.0614e-02  2.8255e-02  6.9207e-02  3.4643e-02  2.3042e-02  0:02:01  979
    22  5.0157e-02  3.0559e-02  2.7420e-02  6.6026e-02  3.1152e-02  2.1975e-02  0:01:37  978

  iter  continuity  x-velocity  y-velocity      energy           k       omega     time/iter
    23  4.7890e-02  3.0712e-02  2.6503e-02  6.2596e-02  2.8619e-02  2.0980e-02  0:01:17  977
    24  4.5815e-02  3.0958e-02  2.5340e-02  5.9286e-02  2.6800e-02  2.0054e-02  0:01:02  976
    25  4.3705e-02  3.0711e-02  2.4343e-02  5.6079e-02  2.5498e-02  1.9205e-02  0:00:49  975
    26  4.1887e-02  3.0359e-02  2.3485e-02  5.3368e-02  2.4569e-02  1.8424e-02  0:00:40  974
    27  4.0630e-02  2.9981e-02  2.2545e-02  5.1268e-02  2.3875e-02  1.7701e-02  0:00:32  973
    28  3.9545e-02  2.9723e-02  2.1524e-02  4.9434e-02  2.3313e-02  1.7056e-02  0:03:40  972
    29  3.8367e-02  2.9479e-02  2.0432e-02  4.7605e-02  2.2819e-02  1.6489e-02  0:02:56  971
    30  3.7038e-02  2.8822e-02  1.9815e-02  4.5685e-02  2.2365e-02  1.5995e-02  0:02:20  970
    31  3.5693e-02  2.7952e-02  1.9471e-02  4.3736e-02  2.1974e-02  1.5552e-02  0:01:52  969
    32  3.4405e-02  2.7194e-02  1.8833e-02  4.1742e-02  2.1630e-02  1.5160e-02  0:01:30  968
    33  3.3184e-02  2.6788e-02  1.7653e-02  3.9710e-02  2.1346e-02  1.4811e-02  0:01:12  967

  iter  continuity  x-velocity  y-velocity      energy           k       omega     time/iter
    34  3.1951e-02  2.6433e-02  1.6460e-02  3.7619e-02  2.1113e-02  1.4513e-02  0:00:57  966
    35  3.0683e-02  2.5812e-02  1.5770e-02  3.5499e-02  2.0912e-02  1.4253e-02  0:00:46  965
    36  2.9495e-02  2.4966e-02  1.5511e-02  3.3449e-02  2.0720e-02  1.4000e-02  0:00:37  964
    37  2.8437e-02  2.4064e-02  1.5311e-02  3.1529e-02  2.0504e-02  1.3732e-02  0:00:29  963
    38  2.7484e-02  2.3379e-02  1.4518e-02  2.9740e-02  2.0248e-02  1.3460e-02  0:03:36  962
    39  2.6650e-02  2.3029e-02  1.3623e-02  2.8145e-02  1.9957e-02  1.3200e-02  0:02:52  961
    40  2.5930e-02  2.2708e-02  1.2927e-02  2.6774e-02  1.9678e-02  1.2939e-02  0:02:18  960
    41  2.5222e-02  2.2101e-02  1.2715e-02  2.5521e-02  1.9434e-02  1.2669e-02  0:01:50  959
    42  2.4614e-02  2.1397e-02  1.2676e-02  2.4435e-02  1.9250e-02  1.2384e-02  0:01:28  958
    43  2.3891e-02  2.0602e-02  1.2394e-02  2.3249e-02  1.9131e-02  1.2111e-02  0:01:10  957
    44  2.3178e-02  1.9946e-02  1.1965e-02  2.2113e-02  1.9045e-02  1.1846e-02  0:00:56  956

  iter  continuity  x-velocity  y-velocity      energy           k       omega     time/iter
    45  2.2462e-02  1.9574e-02  1.1433e-02  2.1036e-02  1.9026e-02  1.1608e-02  0:00:45  955
    46  2.1900e-02  1.9235e-02  1.1013e-02  2.0224e-02  1.9021e-02  1.1384e-02  0:00:36  954
    47  2.1434e-02  1.8754e-02  1.0893e-02  1.9614e-02  1.9002e-02  1.1165e-02  0:00:29  953
    48  2.1053e-02  1.8079e-02  1.0733e-02  1.9124e-02  1.8996e-02  1.0949e-02  0:00:23  952
    49  2.0632e-02  1.7379e-02  1.0392e-02  1.8543e-02  1.8974e-02  1.0740e-02  0:03:29  951

 Reversed flow on 1 face (0.6% area) of pressure-outlet 5.
    50  2.0308e-02  1.6869e-02  1.0074e-02  1.8097e-02  1.8962e-02  1.0540e-02  0:02:47  950

 Reversed flow on 1 face (0.6% area) of pressure-outlet 4.

 Reversed flow on 1 face (0.6% area) of pressure-outlet 5.
    51  1.9978e-02  1.6533e-02  9.6330e-03  1.7770e-02  1.9015e-02  1.0349e-02  0:02:13  949

 Reversed flow on 1 face (0.6% area) of pressure-outlet 4.

 Reversed flow on 1 face (0.6% area) of pressure-outlet 5.
    52  1.9774e-02  1.6264e-02  9.4453e-03  1.7679e-02  1.9085e-02  1.0174e-02  0:01:46  948

 Reversed flow on 1 face (0.6% area) of pressure-outlet 4.

 Reversed flow on 1 face (0.6% area) of pressure-outlet 5.
    53  1.9701e-02  1.5972e-02  9.2585e-03  1.7715e-02  1.9136e-02  1.0003e-02  0:01:25  947

 Reversed flow on 1 face (0.6% area) of pressure-outlet 4.

 Reversed flow on 1 face (0.6% area) of pressure-outlet 5.
    54  1.9666e-02  1.5630e-02  8.8920e-03  1.7729e-02  1.9182e-02  9.8383e-03  0:01:08  946

 Reversed flow on 1 face (0.6% area) of pressure-outlet 4.

 Reversed flow on 1 face (0.6% area) of pressure-outlet 5.
    55  1.9503e-02  1.5172e-02  8.4506e-03  1.7601e-02  1.9286e-02  9.6819e-03  0:00:54  945

 Reversed flow on 1 face (0.6% area) of pressure-outlet 4.

 Reversed flow on 1 face (0.6% area) of pressure-outlet 5.

  iter  continuity  x-velocity  y-velocity      energy           k       omega     time/iter
    56  1.9379e-02  1.4810e-02  8.2766e-03  1.7565e-02  1.9473e-02  9.5348e-03  0:00:43  944

 Reversed flow on 1 face (0.6% area) of pressure-outlet 4.

 Reversed flow on 1 face (0.6% area) of pressure-outlet 5.
    57  1.9325e-02  1.4641e-02  8.2345e-03  1.7658e-02  1.9625e-02  9.3930e-03  0:00:35  943

 Reversed flow on 1 face (0.6% area) of pressure-outlet 4.

 Reversed flow on 1 face (0.6% area) of pressure-outlet 5.
    58  1.9247e-02  1.4504e-02  7.9938e-03  1.7670e-02  1.9761e-02  9.2556e-03  0:00:28  942

 Reversed flow on 1 face (0.6% area) of pressure-outlet 4.

 Reversed flow on 1 face (0.6% area) of pressure-outlet 5.
    59  1.9281e-02  1.4343e-02  7.6837e-03  1.7787e-02  1.9882e-02  9.1292e-03  0:03:30  941

 Reversed flow on 1 face (0.6% area) of pressure-outlet 4.

 Reversed flow on 1 face (0.6% area) of pressure-outlet 5.
    60  1.9389e-02  1.4131e-02  7.4295e-03  1.7977e-02  2.0037e-02  9.0158e-03  0:02:48  940

 Reversed flow on 1 face (0.6% area) of pressure-outlet 4.

 Reversed flow on 1 face (0.6% area) of pressure-outlet 5.
    61  1.9459e-02  1.3859e-02  7.2361e-03  1.8116e-02  2.0185e-02  8.9101e-03  0:02:14  939

 Reversed flow on 1 face (0.6% area) of pressure-outlet 4.

 Reversed flow on 1 face (0.6% area) of pressure-outlet 5.
    62  1.9486e-02  1.3511e-02  7.1201e-03  1.8183e-02  2.0260e-02  8.8214e-03  0:01:47  938

 Reversed flow on 1 face (0.6% area) of pressure-outlet 4.

 Reversed flow on 1 face (0.6% area) of pressure-outlet 5.
    63  1.9503e-02  1.3215e-02  7.1296e-03  1.8239e-02  2.0327e-02  8.7524e-03  0:01:26  937

 Reversed flow on 1 face (0.6% area) of pressure-outlet 4.

 Reversed flow on 1 face (0.6% area) of pressure-outlet 5.
    64  1.9573e-02  1.3097e-02  6.8911e-03  1.8377e-02  2.0397e-02  8.6899e-03  0:01:09  936

 Reversed flow on 1 face (0.6% area) of pressure-outlet 4.

 Reversed flow on 1 face (0.6% area) of pressure-outlet 5.
    65  1.9650e-02  1.3023e-02  6.5829e-03  1.8502e-02  2.0423e-02  8.6311e-03  0:00:55  935

 Reversed flow on 1 face (0.6% area) of pressure-outlet 4.

 Reversed flow on 1 face (0.6% area) of pressure-outlet 5.
    66  1.9815e-02  1.2874e-02  6.4615e-03  1.8671e-02  2.0347e-02  8.5704e-03  0:00:44  934

 Reversed flow on 1 face (0.6% area) of pressure-outlet 4.

 Reversed flow on 1 face (0.6% area) of pressure-outlet 5.

  iter  continuity  x-velocity  y-velocity      energy           k       omega     time/iter
    67  2.0020e-02  1.2699e-02  6.3671e-03  1.8856e-02  2.0254e-02  8.4944e-03  0:00:35  933

 Reversed flow on 1 face (0.6% area) of pressure-outlet 4.

 Reversed flow on 1 face (0.6% area) of pressure-outlet 5.
    68  2.0281e-02  1.2548e-02  6.2028e-03  1.9148e-02  2.0182e-02  8.4074e-03  0:00:28  932

 Reversed flow on 1 face (0.6% area) of pressure-outlet 4.

 Reversed flow on 1 face (0.6% area) of pressure-outlet 5.
    69  2.0474e-02  1.2350e-02  5.9450e-03  1.9363e-02  2.0223e-02  8.3281e-03  0:03:29  931

 Reversed flow on 1 face (0.6% area) of pressure-outlet 4.

 Reversed flow on 1 face (0.6% area) of pressure-outlet 5.
    70  2.0597e-02  1.2167e-02  5.7742e-03  1.9500e-02  2.0317e-02  8.2571e-03  0:02:47  930

 Reversed flow on 1 face (0.6% area) of pressure-outlet 4.

 Reversed flow on 1 face (0.6% area) of pressure-outlet 5.
    71  2.0704e-02  1.2062e-02  5.6805e-03  1.9618e-02  2.0406e-02  8.1888e-03  0:02:13  929

 Reversed flow on 1 face (0.6% area) of pressure-outlet 4.

 Reversed flow on 1 face (0.6% area) of pressure-outlet 5.
    72  2.0778e-02  1.1980e-02  5.5997e-03  1.9694e-02  2.0491e-02  8.1165e-03  0:01:46  928

 Reversed flow on 1 face (0.6% area) of pressure-outlet 4.

 Reversed flow on 1 face (0.6% area) of pressure-outlet 5.
    73  2.0850e-02  1.1881e-02  5.4202e-03  1.9767e-02  2.0573e-02  8.0499e-03  0:01:25  927

 Reversed flow on 1 face (0.6% area) of pressure-outlet 4.

 Reversed flow on 1 face (0.6% area) of pressure-outlet 5.
    74  2.0882e-02  1.1765e-02  5.1523e-03  1.9799e-02  2.0636e-02  7.9797e-03  0:01:08  926

 Reversed flow on 1 face (0.6% area) of pressure-outlet 4.

 Reversed flow on 1 face (0.6% area) of pressure-outlet 5.
    75  2.0875e-02  1.1598e-02  4.9328e-03  1.9799e-02  2.0754e-02  7.9140e-03  0:00:54  925

 Reversed flow on 1 face (0.6% area) of pressure-outlet 4.

 Reversed flow on 1 face (0.6% area) of pressure-outlet 5.
    76  2.0829e-02  1.1424e-02  4.8072e-03  1.9759e-02  2.0917e-02  7.8505e-03  0:00:43  924

 Reversed flow on 1 face (0.6% area) of pressure-outlet 4.

 Reversed flow on 1 face (0.6% area) of pressure-outlet 5.
    77  2.0750e-02  1.1270e-02  4.7439e-03  1.9676e-02  2.1069e-02  7.7869e-03  0:03:39  923

 Reversed flow on 1 face (0.6% area) of pressure-outlet 4.

 Reversed flow on 1 face (0.6% area) of pressure-outlet 5.

  iter  continuity  x-velocity  y-velocity      energy           k       omega     time/iter
    78  2.0663e-02  1.1188e-02  4.6874e-03  1.9585e-02  2.1216e-02  7.7249e-03  0:02:55  922

 Reversed flow on 1 face (0.6% area) of pressure-outlet 4.

 Reversed flow on 1 face (0.6% area) of pressure-outlet 5.
    79  2.0562e-02  1.1115e-02  4.5417e-03  1.9484e-02  2.1306e-02  7.6624e-03  0:02:20  921

 Reversed flow on 1 face (0.6% area) of pressure-outlet 4.

 Reversed flow on 1 face (0.6% area) of pressure-outlet 5.
    80  2.0439e-02  1.1034e-02  4.4031e-03  1.9360e-02  2.1335e-02  7.5936e-03  0:01:52  920

 Reversed flow on 1 face (0.6% area) of pressure-outlet 4.

 Reversed flow on 1 face (0.6% area) of pressure-outlet 5.
    81  2.0289e-02  1.0903e-02  4.2801e-03  1.9207e-02  2.1333e-02  7.5264e-03  0:01:29  919

 Reversed flow on 1 face (0.6% area) of pressure-outlet 4.

 Reversed flow on 1 face (0.6% area) of pressure-outlet 5.
    82  2.0130e-02  1.0756e-02  4.2384e-03  1.9039e-02  2.1379e-02  7.4630e-03  0:01:11  918

 Reversed flow on 1 face (0.6% area) of pressure-outlet 4.

 Reversed flow on 1 face (0.6% area) of pressure-outlet 5.
    83  1.9965e-02  1.0608e-02  4.1958e-03  1.8867e-02  2.1393e-02  7.4026e-03  0:00:57  917

 Reversed flow on 1 face (0.6% area) of pressure-outlet 4.

 Reversed flow on 1 face (0.6% area) of pressure-outlet 5.
    84  1.9791e-02  1.0477e-02  4.1287e-03  1.8690e-02  2.1369e-02  7.3496e-03  0:00:46  916

 Reversed flow on 1 face (0.6% area) of pressure-outlet 4.

 Reversed flow on 1 face (0.6% area) of pressure-outlet 5.
    85  1.9614e-02  1.0375e-02  4.0396e-03  1.8519e-02  2.1291e-02  7.3065e-03  0:00:36  915

 Reversed flow on 1 face (0.6% area) of pressure-outlet 4.

 Reversed flow on 1 face (0.6% area) of pressure-outlet 5.
    86  1.9430e-02  1.0294e-02  3.9637e-03  1.8345e-02  2.1213e-02  7.2773e-03  0:00:29  914

 Reversed flow on 1 face (0.6% area) of pressure-outlet 4.

 Reversed flow on 1 face (0.6% area) of pressure-outlet 5.
    87  1.9231e-02  1.0215e-02  3.8951e-03  1.8159e-02  2.1118e-02  7.2372e-03  0:03:26  913

 Reversed flow on 1 face (0.6% area) of pressure-outlet 4.

 Reversed flow on 1 face (0.6% area) of pressure-outlet 5.
    88  1.9026e-02  1.0117e-02  3.8412e-03  1.7971e-02  2.0985e-02  7.1649e-03  0:02:45  912

 Reversed flow on 1 face (0.6% area) of pressure-outlet 4.

 Reversed flow on 1 face (0.6% area) of pressure-outlet 5.

  iter  continuity  x-velocity  y-velocity      energy           k       omega     time/iter
    89  1.8835e-02  1.0013e-02  3.8010e-03  1.7803e-02  2.0859e-02  7.0832e-03  0:02:11  911

 Reversed flow on 1 face (0.6% area) of pressure-outlet 4.

 Reversed flow on 1 face (0.6% area) of pressure-outlet 5.
    90  1.8643e-02  9.8957e-03  3.7592e-03  1.7637e-02  2.0716e-02  7.0101e-03  0:01:45  910

 Reversed flow on 1 face (0.6% area) of pressure-outlet 4.

 Reversed flow on 1 face (0.6% area) of pressure-outlet 5.
    91  1.8451e-02  9.7966e-03  3.7284e-03  1.7479e-02  2.0572e-02  6.9406e-03  0:01:24  909

 Reversed flow on 1 face (0.6% area) of pressure-outlet 4.

 Reversed flow on 1 face (0.6% area) of pressure-outlet 5.
    92  1.8251e-02  9.7151e-03  3.7068e-03  1.7313e-02  2.0454e-02  6.8754e-03  0:01:07  908

 Reversed flow on 1 face (0.6% area) of pressure-outlet 4.

 Reversed flow on 1 face (0.6% area) of pressure-outlet 5.
    93  1.8042e-02  9.6499e-03  3.7000e-03  1.7139e-02  2.0355e-02  6.8203e-03  0:00:54  907

 Reversed flow on 1 face (0.6% area) of pressure-outlet 4.

 Reversed flow on 1 face (0.6% area) of pressure-outlet 5.
    94  1.7834e-02  9.5776e-03  3.7045e-03  1.6968e-02  2.0250e-02  6.7724e-03  0:00:43  906

 Reversed flow on 1 face (0.6% area) of pressure-outlet 4.

 Reversed flow on 1 face (0.6% area) of pressure-outlet 5.
    95  1.7631e-02  9.4980e-03  3.7113e-03  1.6803e-02  2.0161e-02  6.7302e-03  0:00:34  905

 Reversed flow on 1 face (0.6% area) of pressure-outlet 4.

 Reversed flow on 1 face (0.6% area) of pressure-outlet 5.
    96  1.7441e-02  9.4080e-03  3.7173e-03  1.6650e-02  2.0112e-02  6.6769e-03  0:00:27  904

 Reversed flow on 1 face (0.6% area) of pressure-outlet 4.

 Reversed flow on 1 face (0.6% area) of pressure-outlet 5.
    97  1.7258e-02  9.3100e-03  3.7439e-03  1.6502e-02  2.0064e-02  6.6151e-03  0:00:22  903

 Reversed flow on 1 face (0.6% area) of pressure-outlet 4.

 Reversed flow on 1 face (0.6% area) of pressure-outlet 5.
    98  1.7067e-02  9.2238e-03  3.7664e-03  1.6344e-02  2.0052e-02  6.5476e-03  0:00:17  902

 Reversed flow on 1 face (0.6% area) of pressure-outlet 4.

 Reversed flow on 1 face (0.6% area) of pressure-outlet 5.
    99  1.6857e-02  9.1501e-03  3.7772e-03  1.6165e-02  2.0136e-02  6.4768e-03  0:03:14  901

 Reversed flow on 1 face (0.6% area) of pressure-outlet 4.

 Reversed flow on 1 face (0.6% area) of pressure-outlet 5.

  iter  continuity  x-velocity  y-velocity      energy           k       omega     time/iter
   100  1.6645e-02  9.0843e-03  3.7767e-03  1.5980e-02  2.0256e-02  6.4068e-03  0:02:35  900

 Reversed flow on 1 face (0.6% area) of pressure-outlet 4.

 Reversed flow on 1 face (0.6% area) of pressure-outlet 5.
   101  1.6438e-02  9.0194e-03  3.7655e-03  1.5799e-02  2.0398e-02  6.3377e-03  0:02:04  899

 Reversed flow on 1 face (0.6% area) of pressure-outlet 4.

 Reversed flow on 1 face (0.6% area) of pressure-outlet 5.
   102  1.6233e-02  8.9425e-03  3.7379e-03  1.5615e-02  2.0545e-02  6.2725e-03  0:01:39  898

 Reversed flow on 1 face (0.6% area) of pressure-outlet 4.

 Reversed flow on 1 face (0.6% area) of pressure-outlet 5.
   103  1.6029e-02  8.8496e-03  3.6942e-03  1.5428e-02  2.0652e-02  6.2084e-03  0:01:19  897

 Reversed flow on 1 face (0.6% area) of pressure-outlet 4.

 Reversed flow on 1 face (0.6% area) of pressure-outlet 5.
   104  1.5824e-02  8.7500e-03  3.6445e-03  1.5238e-02  2.0762e-02  6.1491e-03  0:01:03  896

 Reversed flow on 1 face (0.6% area) of pressure-outlet 4.

 Reversed flow on 1 face (0.6% area) of pressure-outlet 5.
   105  1.5619e-02  8.6442e-03  3.5855e-03  1.5045e-02  2.0903e-02  6.1036e-03  0:00:51  895

 Reversed flow on 1 face (0.6% area) of pressure-outlet 4.

 Reversed flow on 1 face (0.6% area) of pressure-outlet 5.
   106  1.5411e-02  8.5413e-03  3.5182e-03  1.4846e-02  2.1057e-02  6.0595e-03  0:00:40  894

 Reversed flow on 1 face (0.6% area) of pressure-outlet 4.

 Reversed flow on 1 face (0.6% area) of pressure-outlet 5.
   107  1.5196e-02  8.4419e-03  3.4448e-03  1.4640e-02  2.1221e-02  6.0106e-03  0:00:32  893

 Reversed flow on 1 face (0.6% area) of pressure-outlet 4.

 Reversed flow on 1 face (0.6% area) of pressure-outlet 5.
   108  1.4975e-02  8.3479e-03  3.3670e-03  1.4423e-02  2.1399e-02  5.9525e-03  0:03:24  892

 Reversed flow on 1 face (0.6% area) of pressure-outlet 5.
   109  1.4755e-02  8.2453e-03  3.2885e-03  1.4207e-02  2.1579e-02  5.8809e-03  0:02:43  891

 Reversed flow on 1 face (0.6% area) of pressure-outlet 4.

 Reversed flow on 1 face (0.6% area) of pressure-outlet 5.
   110  1.4533e-02  8.1258e-03  3.2051e-03  1.3988e-02  2.1732e-02  5.8052e-03  0:02:10  890

 Reversed flow on 1 face (0.6% area) of pressure-outlet 4.

 Reversed flow on 1 face (0.6% area) of pressure-outlet 5.

  iter  continuity  x-velocity  y-velocity      energy           k       omega     time/iter
   111  1.4313e-02  8.0032e-03  3.1287e-03  1.3770e-02  2.1802e-02  5.7208e-03  0:01:44  889
   112  1.4106e-02  7.8703e-03  3.0624e-03  1.3563e-02  2.1801e-02  5.6397e-03  0:01:23  888

 Reversed flow on 1 face (0.6% area) of pressure-outlet 4.

 Reversed flow on 1 face (0.6% area) of pressure-outlet 5.
   113  1.3912e-02  7.7372e-03  3.0015e-03  1.3367e-02  2.1755e-02  5.5695e-03  0:01:07  887

 Reversed flow on 1 face (0.6% area) of pressure-outlet 5.
   114  1.3718e-02  7.6050e-03  2.9524e-03  1.3170e-02  2.1707e-02  5.5012e-03  0:00:53  886

 Reversed flow on 1 face (0.6% area) of pressure-outlet 4.
   115  1.3523e-02  7.4724e-03  2.9082e-03  1.2971e-02  2.1651e-02  5.4332e-03  0:00:42  885

 Reversed flow on 1 face (0.6% area) of pressure-outlet 5.
   116  1.3326e-02  7.3348e-03  2.8610e-03  1.2773e-02  2.1580e-02  5.3648e-03  0:00:34  884
   117  1.3132e-02  7.1850e-03  2.8150e-03  1.2577e-02  2.1440e-02  5.2905e-03  0:00:27  883

 Reversed flow on 1 face (0.6% area) of pressure-outlet 4.

 Reversed flow on 1 face (0.6% area) of pressure-outlet 5.
   118  1.2946e-02  7.0255e-03  2.7690e-03  1.2391e-02  2.1235e-02  5.2161e-03  0:03:18  882
   119  1.2772e-02  6.8575e-03  2.7237e-03  1.2217e-02  2.0994e-02  5.1402e-03  0:02:38  881
   120  1.2605e-02  6.6906e-03  2.6846e-03  1.2051e-02  2.0740e-02  5.0717e-03  0:02:06  880

 Reversed flow on 1 face (0.6% area) of pressure-outlet 5.
   121  1.2452e-02  6.5306e-03  2.6433e-03  1.1898e-02  2.0411e-02  5.0045e-03  0:01:41  879

  iter  continuity  x-velocity  y-velocity      energy           k       omega     time/iter
   122  1.2307e-02  6.3775e-03  2.5998e-03  1.1754e-02  2.0006e-02  4.9317e-03  0:01:21  878
   123  1.2171e-02  6.2330e-03  2.5495e-03  1.1619e-02  1.9574e-02  4.8497e-03  0:01:05  877
   124  1.2042e-02  6.0913e-03  2.4923e-03  1.1493e-02  1.9177e-02  4.7654e-03  0:00:52  876
   125  1.1921e-02  5.9390e-03  2.4333e-03  1.1376e-02  1.8820e-02  4.6839e-03  0:00:41  875
   126  1.1804e-02  5.7751e-03  2.3696e-03  1.1265e-02  1.8491e-02  4.6078e-03  0:00:33  874
   127  1.1693e-02  5.6151e-03  2.3080e-03  1.1161e-02  1.8181e-02  4.5392e-03  0:03:21  873
   128  1.1591e-02  5.4639e-03  2.2588e-03  1.1066e-02  1.7882e-02  4.4713e-03  0:02:41  872
   129  1.1496e-02  5.3282e-03  2.1945e-03  1.0977e-02  1.7562e-02  4.4023e-03  0:02:08  871
   130  1.1399e-02  5.2057e-03  2.1360e-03  1.0887e-02  1.7220e-02  4.3326e-03  0:01:43  870
   131  1.1298e-02  5.0894e-03  2.0656e-03  1.0792e-02  1.6863e-02  4.2596e-03  0:01:22  869
   132  1.1197e-02  4.9749e-03  2.0009e-03  1.0698e-02  1.6495e-02  4.1893e-03  0:01:05  868

  iter  continuity  x-velocity  y-velocity      energy           k       omega     time/iter
   133  1.1087e-02  4.8577e-03  1.9370e-03  1.0595e-02  1.6137e-02  4.1240e-03  0:00:52  867
   134  1.0972e-02  4.7316e-03  1.8756e-03  1.0487e-02  1.5793e-02  4.0582e-03  0:00:42  866
   135  1.0856e-02  4.6090e-03  1.8223e-03  1.0378e-02  1.5471e-02  3.9930e-03  0:00:33  865
   136  1.0745e-02  4.4965e-03  1.7779e-03  1.0272e-02  1.5153e-02  3.9313e-03  0:00:27  864
   137  1.0634e-02  4.3994e-03  1.7254e-03  1.0164e-02  1.4843e-02  3.8768e-03  0:03:14  863
   138  1.0521e-02  4.3175e-03  1.6794e-03  1.0054e-02  1.4535e-02  3.8213e-03  0:02:35  862
   139  1.0407e-02  4.2396e-03  1.6298e-03  9.9442e-03  1.4253e-02  3.7670e-03  0:02:04  861

 Reversed flow on 1 face (0.6% area) of pressure-outlet 4.
   140  1.0290e-02  4.1585e-03  1.5724e-03  9.8306e-03  1.3978e-02  3.7159e-03  0:01:39  860
   141  1.0177e-02  4.0842e-03  1.5262e-03  9.7197e-03  1.3709e-02  3.6704e-03  0:01:19  859
   142  1.0051e-02  4.0175e-03  1.4776e-03  9.5971e-03  1.3453e-02  3.6218e-03  0:01:03  858
   143  9.9116e-03  3.9402e-03  1.4373e-03  9.4596e-03  1.3214e-02  3.5716e-03  0:00:50  857

 Reversed flow on 1 face (0.6% area) of pressure-outlet 5.

  iter  continuity  x-velocity  y-velocity      energy           k       omega     time/iter
   144  9.7806e-03  3.8790e-03  1.3827e-03  9.3290e-03  1.2991e-02  3.5253e-03  0:00:40  856

 Reversed flow on 1 face (0.6% area) of pressure-outlet 4.
   145  9.6546e-03  3.8242e-03  1.3355e-03  9.2013e-03  1.2785e-02  3.4812e-03  0:00:32  855
   146  9.5321e-03  3.7758e-03  1.2828e-03  9.0753e-03  1.2595e-02  3.4379e-03  0:00:26  854
   147  9.4088e-03  3.7257e-03  1.2599e-03  8.9476e-03  1.2409e-02  3.3932e-03  0:03:11  853

 Reversed flow on 1 face (0.6% area) of pressure-outlet 4.
   148  9.2853e-03  3.6769e-03  1.2469e-03  8.8194e-03  1.2235e-02  3.3491e-03  0:02:33  852
   149  9.1600e-03  3.6315e-03  1.2322e-03  8.6895e-03  1.2079e-02  3.3091e-03  0:02:02  851

 Reversed flow on 1 face (0.6% area) of pressure-outlet 4.

 Reversed flow on 1 face (0.6% area) of pressure-outlet 5.
   150  9.0385e-03  3.5957e-03  1.2040e-03  8.5636e-03  1.1938e-02  3.2688e-03  0:01:38  850
   151  8.9258e-03  3.5759e-03  1.1744e-03  8.4462e-03  1.1805e-02  3.2268e-03  0:01:18  849

 Reversed flow on 1 face (0.6% area) of pressure-outlet 4.
   152  8.8141e-03  3.5564e-03  1.1410e-03  8.3306e-03  1.1677e-02  3.1874e-03  0:01:02  848

 Reversed flow on 1 face (0.6% area) of pressure-outlet 4.
   153  8.7178e-03  3.5379e-03  1.1224e-03  8.2296e-03  1.1554e-02  3.1457e-03  0:00:50  847

 Reversed flow on 1 face (0.6% area) of pressure-outlet 4.

 Reversed flow on 1 face (0.6% area) of pressure-outlet 5.
   154  8.6344e-03  3.5070e-03  1.0963e-03  8.1403e-03  1.1442e-02  3.1052e-03  0:00:40  846

 Reversed flow on 1 face (0.6% area) of pressure-outlet 4.

  iter  continuity  x-velocity  y-velocity      energy           k       omega     time/iter
   155  8.5649e-03  3.4898e-03  1.0829e-03  8.0647e-03  1.1340e-02  3.0659e-03  0:00:32  845

 Reversed flow on 1 face (0.6% area) of pressure-outlet 4.

 Reversed flow on 1 face (0.6% area) of pressure-outlet 5.
   156  8.5103e-03  3.4588e-03  1.0764e-03  8.0033e-03  1.1255e-02  3.0287e-03  0:00:25  844

 Reversed flow on 1 face (0.6% area) of pressure-outlet 4.
   157  8.4687e-03  3.4412e-03  1.0705e-03  7.9551e-03  1.1179e-02  2.9918e-03  0:03:09  843

 Reversed flow on 1 face (0.6% area) of pressure-outlet 4.

 Reversed flow on 1 face (0.6% area) of pressure-outlet 5.
   158  8.4414e-03  3.4287e-03  1.0639e-03  7.9225e-03  1.1108e-02  2.9539e-03  0:02:31  842

 Reversed flow on 1 face (0.6% area) of pressure-outlet 4.

 Reversed flow on 1 face (0.6% area) of pressure-outlet 5.
   159  8.4300e-03  3.4213e-03  1.0539e-03  7.9074e-03  1.1037e-02  2.9165e-03  0:02:01  841

 Reversed flow on 1 face (0.6% area) of pressure-outlet 4.

 Reversed flow on 1 face (0.6% area) of pressure-outlet 5.
   160  8.4322e-03  3.4166e-03  1.0505e-03  7.9073e-03  1.0965e-02  2.8821e-03  0:01:36  840

 Reversed flow on 1 face (0.6% area) of pressure-outlet 4.

 Reversed flow on 1 face (0.6% area) of pressure-outlet 5.
   161  8.4403e-03  3.4192e-03  1.0474e-03  7.9149e-03  1.0893e-02  2.8466e-03  0:01:17  839

 Reversed flow on 1 face (0.6% area) of pressure-outlet 4.

 Reversed flow on 1 face (0.6% area) of pressure-outlet 5.
   162  8.4583e-03  3.4278e-03  1.0432e-03  7.9337e-03  1.0825e-02  2.8130e-03  0:01:02  838

 Reversed flow on 1 face (0.6% area) of pressure-outlet 4.

 Reversed flow on 1 face (0.6% area) of pressure-outlet 5.
   163  8.4898e-03  3.4448e-03  1.0413e-03  7.9665e-03  1.0757e-02  2.7806e-03  0:00:49  837

 Reversed flow on 1 face (0.6% area) of pressure-outlet 4.

 Reversed flow on 1 face (0.6% area) of pressure-outlet 5.
   164  8.5384e-03  3.4723e-03  1.0422e-03  8.0166e-03  1.0693e-02  2.7500e-03  0:00:39  836

 Reversed flow on 1 face (0.6% area) of pressure-outlet 4.

 Reversed flow on 1 face (0.6% area) of pressure-outlet 5.
   165  8.5996e-03  3.4760e-03  1.0387e-03  8.0795e-03  1.0633e-02  2.7203e-03  0:00:31  835

 Reversed flow on 1 face (0.6% area) of pressure-outlet 4.

 Reversed flow on 1 face (0.6% area) of pressure-outlet 5.

  iter  continuity  x-velocity  y-velocity      energy           k       omega     time/iter
   166  8.6709e-03  3.4902e-03  1.0474e-03  8.1523e-03  1.0582e-02  2.6899e-03  0:03:12  834

 Reversed flow on 1 face (0.6% area) of pressure-outlet 4.

 Reversed flow on 1 face (0.6% area) of pressure-outlet 5.
   167  8.7522e-03  3.5109e-03  1.0534e-03  8.2359e-03  1.0540e-02  2.6626e-03  0:02:33  833

 Reversed flow on 1 face (0.6% area) of pressure-outlet 4.

 Reversed flow on 1 face (0.6% area) of pressure-outlet 5.
   168  8.8460e-03  3.5244e-03  1.0609e-03  8.3327e-03  1.0499e-02  2.6375e-03  0:02:03  832

 Reversed flow on 1 face (0.6% area) of pressure-outlet 4.

 Reversed flow on 1 face (0.6% area) of pressure-outlet 5.
   169  8.9420e-03  3.5432e-03  1.0693e-03  8.4320e-03  1.0457e-02  2.6116e-03  0:01:38  831

 Reversed flow on 1 face (0.6% area) of pressure-outlet 4.

 Reversed flow on 1 face (0.6% area) of pressure-outlet 5.
   170  9.0352e-03  3.5713e-03  1.0818e-03  8.5293e-03  1.0422e-02  2.5900e-03  0:01:18  830

 Reversed flow on 1 face (0.6% area) of pressure-outlet 4.

 Reversed flow on 1 face (0.6% area) of pressure-outlet 5.
   171  9.1340e-03  3.6042e-03  1.0898e-03  8.6317e-03  1.0393e-02  2.5688e-03  0:01:02  829

 Reversed flow on 1 face (0.6% area) of pressure-outlet 4.

 Reversed flow on 1 face (0.6% area) of pressure-outlet 5.
   172  9.2422e-03  3.6403e-03  1.0997e-03  8.7427e-03  1.0369e-02  2.5470e-03  0:00:50  828

 Reversed flow on 1 face (0.6% area) of pressure-outlet 4.

 Reversed flow on 1 face (0.6% area) of pressure-outlet 5.
   173  9.3542e-03  3.6777e-03  1.1141e-03  8.8568e-03  1.0351e-02  2.5279e-03  0:00:40  827

 Reversed flow on 1 face (0.6% area) of pressure-outlet 4.

 Reversed flow on 1 face (0.6% area) of pressure-outlet 5.
   174  9.4632e-03  3.7182e-03  1.1297e-03  8.9672e-03  1.0338e-02  2.5087e-03  0:03:17  826

 Reversed flow on 1 face (0.6% area) of pressure-outlet 4.

 Reversed flow on 1 face (0.6% area) of pressure-outlet 5.
   175  9.5734e-03  3.7554e-03  1.1474e-03  9.0783e-03  1.0337e-02  2.4912e-03  0:02:37  825

 Reversed flow on 1 face (0.6% area) of pressure-outlet 4.

 Reversed flow on 1 face (0.6% area) of pressure-outlet 5.
   176  9.6865e-03  3.7891e-03  1.1599e-03  9.1913e-03  1.0344e-02  2.4744e-03  0:02:06  824

 Reversed flow on 1 face (0.6% area) of pressure-outlet 4.

 Reversed flow on 1 face (0.6% area) of pressure-outlet 5.

  iter  continuity  x-velocity  y-velocity      energy           k       omega     time/iter
   177  9.7978e-03  3.8225e-03  1.1722e-03  9.3014e-03  1.0357e-02  2.4591e-03  0:01:41  823

 Reversed flow on 1 face (0.6% area) of pressure-outlet 4.

 Reversed flow on 1 face (0.6% area) of pressure-outlet 5.
   178  9.9041e-03  3.8579e-03  1.1833e-03  9.4058e-03  1.0379e-02  2.4478e-03  0:01:20  822

 Reversed flow on 1 face (0.6% area) of pressure-outlet 4.

 Reversed flow on 1 face (0.6% area) of pressure-outlet 5.
   179  1.0011e-02  3.8995e-03  1.1982e-03  9.5099e-03  1.0403e-02  2.4345e-03  0:01:04  821

 Reversed flow on 1 face (0.6% area) of pressure-outlet 4.

 Reversed flow on 1 face (0.6% area) of pressure-outlet 5.
   180  1.0115e-02  3.9390e-03  1.2172e-03  9.6090e-03  1.0435e-02  2.4234e-03  0:00:51  820

 Reversed flow on 1 face (0.6% area) of pressure-outlet 4.

 Reversed flow on 1 face (0.6% area) of pressure-outlet 5.
   181  1.0213e-02  3.9783e-03  1.2324e-03  9.7022e-03  1.0467e-02  2.4153e-03  0:00:41  819

 Reversed flow on 1 face (0.6% area) of pressure-outlet 4.

 Reversed flow on 1 face (0.6% area) of pressure-outlet 5.
   182  1.0309e-02  4.0165e-03  1.2434e-03  9.7923e-03  1.0507e-02  2.4049e-03  0:00:33  818

 Reversed flow on 1 face (0.6% area) of pressure-outlet 4.

 Reversed flow on 1 face (0.6% area) of pressure-outlet 5.
   183  1.0401e-02  4.0511e-03  1.2494e-03  9.8784e-03  1.0563e-02  2.3953e-03  0:03:10  817

 Reversed flow on 1 face (0.6% area) of pressure-outlet 4.

 Reversed flow on 1 face (0.6% area) of pressure-outlet 5.
   184  1.0491e-02  4.0820e-03  1.2552e-03  9.9607e-03  1.0619e-02  2.3882e-03  0:02:31  816

 Reversed flow on 1 face (0.6% area) of pressure-outlet 4.

 Reversed flow on 1 face (0.6% area) of pressure-outlet 5.
   185  1.0576e-02  4.1105e-03  1.2579e-03  1.0037e-02  1.0682e-02  2.3787e-03  0:02:01  815

 Reversed flow on 1 face (0.6% area) of pressure-outlet 4.

 Reversed flow on 1 face (0.6% area) of pressure-outlet 5.
   186  1.0662e-02  4.1420e-03  1.2656e-03  1.0114e-02  1.0762e-02  2.3713e-03  0:01:37  814

 Reversed flow on 1 face (0.6% area) of pressure-outlet 4.

 Reversed flow on 1 face (0.6% area) of pressure-outlet 5.
   187  1.0745e-02  4.1734e-03  1.2736e-03  1.0188e-02  1.0838e-02  2.3666e-03  0:01:17  813

 Reversed flow on 1 face (0.6% area) of pressure-outlet 4.

 Reversed flow on 1 face (0.6% area) of pressure-outlet 5.

  iter  continuity  x-velocity  y-velocity      energy           k       omega     time/iter
   188  1.0826e-02  4.2033e-03  1.2799e-03  1.0259e-02  1.0907e-02  2.3594e-03  0:01:02  812

 Reversed flow on 1 face (0.6% area) of pressure-outlet 4.

 Reversed flow on 1 face (0.6% area) of pressure-outlet 5.
   189  1.0905e-02  4.2281e-03  1.2831e-03  1.0329e-02  1.0998e-02  2.3517e-03  0:00:49  811

 Reversed flow on 1 face (0.6% area) of pressure-outlet 4.

 Reversed flow on 1 face (0.6% area) of pressure-outlet 5.
   190  1.0986e-02  4.2522e-03  1.2861e-03  1.0400e-02  1.1086e-02  2.3468e-03  0:00:39  810

 Reversed flow on 1 face (0.6% area) of pressure-outlet 4.

 Reversed flow on 1 face (0.6% area) of pressure-outlet 5.
   191  1.1069e-02  4.2773e-03  1.2925e-03  1.0475e-02  1.1183e-02  2.3418e-03  0:00:31  809

 Reversed flow on 1 face (0.6% area) of pressure-outlet 4.

 Reversed flow on 1 face (0.6% area) of pressure-outlet 5.
   192  1.1154e-02  4.3074e-03  1.2987e-03  1.0552e-02  1.1291e-02  2.3364e-03  0:00:25  808

 Reversed flow on 1 face (0.6% area) of pressure-outlet 4.

 Reversed flow on 1 face (0.6% area) of pressure-outlet 5.
   193  1.1245e-02  4.3275e-03  1.3071e-03  1.0636e-02  1.1399e-02  2.3340e-03  0:00:20  807

 Reversed flow on 1 face (0.6% area) of pressure-outlet 4.

 Reversed flow on 1 face (0.6% area) of pressure-outlet 5.
   194  1.1344e-02  4.3407e-03  1.3112e-03  1.0731e-02  1.1504e-02  2.3336e-03  0:00:16  806

 Reversed flow on 1 face (0.6% area) of pressure-outlet 4.

 Reversed flow on 1 face (0.6% area) of pressure-outlet 5.
   195  1.1452e-02  4.3555e-03  1.3189e-03  1.0836e-02  1.1638e-02  2.3302e-03  0:00:13  805

 Reversed flow on 1 face (0.6% area) of pressure-outlet 4.

 Reversed flow on 1 face (0.6% area) of pressure-outlet 5.
   196  1.1574e-02  4.3726e-03  1.3292e-03  1.0957e-02  1.1762e-02  2.3265e-03  0:02:51  804

 Reversed flow on 1 face (0.6% area) of pressure-outlet 4.

 Reversed flow on 1 face (0.6% area) of pressure-outlet 5.
   197  1.1717e-02  4.3901e-03  1.3396e-03  1.1101e-02  1.1897e-02  2.3285e-03  0:02:17  803

 Reversed flow on 1 face (0.6% area) of pressure-outlet 4.

 Reversed flow on 1 face (0.6% area) of pressure-outlet 5.
   198  1.1883e-02  4.4049e-03  1.3522e-03  1.1270e-02  1.2044e-02  2.3305e-03  0:01:49  802

 Reversed flow on 1 face (0.6% area) of pressure-outlet 4.

 Reversed flow on 1 face (0.6% area) of pressure-outlet 5.

  iter  continuity  x-velocity  y-velocity      energy           k       omega     time/iter
   199  1.2077e-02  4.4155e-03  1.3656e-03  1.1471e-02  1.2197e-02  2.3319e-03  0:01:27  801

 Reversed flow on 1 face (0.6% area) of pressure-outlet 4.

 Reversed flow on 1 face (0.6% area) of pressure-outlet 5.
   200  1.2306e-02  4.4234e-03  1.3789e-03  1.1708e-02  1.2342e-02  2.3342e-03  0:01:10  800

 Reversed flow on 1 face (0.6% area) of pressure-outlet 4.

 Reversed flow on 1 face (0.6% area) of pressure-outlet 5.
   201  1.2565e-02  4.4277e-03  1.3966e-03  1.1978e-02  1.2499e-02  2.3336e-03  0:00:56  799

 Reversed flow on 1 face (0.6% area) of pressure-outlet 4.

 Reversed flow on 1 face (0.6% area) of pressure-outlet 5.
   202  1.2857e-02  4.4237e-03  1.4147e-03  1.2283e-02  1.2665e-02  2.3324e-03  0:00:45  798

 Reversed flow on 1 face (0.6% area) of pressure-outlet 4.

 Reversed flow on 1 face (0.6% area) of pressure-outlet 5.
   203  1.3181e-02  4.4198e-03  1.4345e-03  1.2622e-02  1.2833e-02  2.3337e-03  0:00:36  797

 Reversed flow on 1 face (0.6% area) of pressure-outlet 4.

 Reversed flow on 1 face (0.6% area) of pressure-outlet 5.
   204  1.3537e-02  4.4121e-03  1.4554e-03  1.2993e-02  1.3019e-02  2.3368e-03  0:00:28  796

 Reversed flow on 1 face (0.6% area) of pressure-outlet 4.

 Reversed flow on 1 face (0.6% area) of pressure-outlet 5.
   205  1.3920e-02  4.4015e-03  1.4784e-03  1.3391e-02  1.3233e-02  2.3424e-03  0:03:02  795

 Reversed flow on 1 face (0.6% area) of pressure-outlet 4.

 Reversed flow on 1 face (0.6% area) of pressure-outlet 5.
   206  1.4319e-02  4.3817e-03  1.5023e-03  1.3805e-02  1.3430e-02  2.3493e-03  0:02:25  794

 Reversed flow on 1 face (0.6% area) of pressure-outlet 4.

 Reversed flow on 1 face (0.6% area) of pressure-outlet 5.
   207  1.4737e-02  4.3576e-03  1.5278e-03  1.4237e-02  1.3641e-02  2.3542e-03  0:01:56  793

 Reversed flow on 1 face (0.6% area) of pressure-outlet 4.

 Reversed flow on 1 face (0.6% area) of pressure-outlet 5.
   208  1.5171e-02  4.3330e-03  1.5538e-03  1.4685e-02  1.3856e-02  2.3596e-03  0:01:33  792

 Reversed flow on 1 face (0.6% area) of pressure-outlet 4.

 Reversed flow on 1 face (0.6% area) of pressure-outlet 5.
   209  1.5609e-02  4.3001e-03  1.5807e-03  1.5135e-02  1.4085e-02  2.3683e-03  0:01:14  791

 Reversed flow on 1 face (0.6% area) of pressure-outlet 4.

 Reversed flow on 1 face (0.6% area) of pressure-outlet 5.

  iter  continuity  x-velocity  y-velocity      energy           k       omega     time/iter
   210  1.6059e-02  4.2672e-03  1.6087e-03  1.5596e-02  1.4358e-02  2.3754e-03  0:00:59  790

 Reversed flow on 1 face (0.6% area) of pressure-outlet 4.

 Reversed flow on 1 face (0.6% area) of pressure-outlet 5.
   211  1.6518e-02  4.2322e-03  1.6370e-03  1.6064e-02  1.4628e-02  2.3850e-03  0:00:47  789

 Reversed flow on 1 face (0.6% area) of pressure-outlet 4.

 Reversed flow on 1 face (0.6% area) of pressure-outlet 5.
   212  1.6988e-02  4.1969e-03  1.6641e-03  1.6542e-02  1.4904e-02  2.3933e-03  0:00:38  788

 Reversed flow on 1 face (0.6% area) of pressure-outlet 4.

 Reversed flow on 1 face (0.6% area) of pressure-outlet 5.
   213  1.7437e-02  4.1573e-03  1.6913e-03  1.6996e-02  1.5194e-02  2.3996e-03  0:00:30  787

 Reversed flow on 1 face (0.6% area) of pressure-outlet 4.

 Reversed flow on 1 face (0.6% area) of pressure-outlet 5.
   214  1.7902e-02  4.1160e-03  1.7126e-03  1.7465e-02  1.5461e-02  2.4075e-03  0:00:24  786

 Reversed flow on 1 face (0.6% area) of pressure-outlet 4.

 Reversed flow on 1 face (0.6% area) of pressure-outlet 5.
   215  1.8396e-02  4.0703e-03  1.7291e-03  1.7961e-02  1.5710e-02  2.4142e-03  0:00:19  785

 Reversed flow on 1 face (0.6% area) of pressure-outlet 4.

 Reversed flow on 1 face (0.6% area) of pressure-outlet 5.
   216  1.8932e-02  4.0245e-03  1.7466e-03  1.8497e-02  1.5993e-02  2.4244e-03  0:02:52  784

 Reversed flow on 1 face (0.6% area) of pressure-outlet 4.

 Reversed flow on 1 face (0.6% area) of pressure-outlet 5.
   217  1.9485e-02  3.9784e-03  1.7634e-03  1.9048e-02  1.6267e-02  2.4237e-03  0:02:18  783

 Reversed flow on 1 face (0.6% area) of pressure-outlet 4.

 Reversed flow on 1 face (0.6% area) of pressure-outlet 5.
   218  2.0036e-02  3.9331e-03  1.7768e-03  1.9593e-02  1.6508e-02  2.4222e-03  0:01:50  782

 Reversed flow on 1 face (0.6% area) of pressure-outlet 4.

 Reversed flow on 1 face (0.6% area) of pressure-outlet 5.
   219  2.0587e-02  3.8849e-03  1.7883e-03  2.0137e-02  1.6692e-02  2.4256e-03  0:01:28  781

 Reversed flow on 1 face (0.6% area) of pressure-outlet 4.

 Reversed flow on 1 face (0.6% area) of pressure-outlet 5.
   220  2.1140e-02  3.8342e-03  1.8014e-03  2.0681e-02  1.6845e-02  2.4229e-03  0:01:10  780

 Reversed flow on 1 face (0.6% area) of pressure-outlet 4.

 Reversed flow on 1 face (0.6% area) of pressure-outlet 5.

  iter  continuity  x-velocity  y-velocity      energy           k       omega     time/iter
   221  2.1678e-02  3.7796e-03  1.8134e-03  2.1208e-02  1.7054e-02  2.4186e-03  0:00:56  779

 Reversed flow on 1 face (0.6% area) of pressure-outlet 4.

 Reversed flow on 1 face (0.6% area) of pressure-outlet 5.
   222  2.2194e-02  3.7214e-03  1.8264e-03  2.1710e-02  1.7131e-02  2.4112e-03  0:00:45  778

 Reversed flow on 1 face (0.6% area) of pressure-outlet 4.

 Reversed flow on 1 face (0.6% area) of pressure-outlet 5.
   223  2.2689e-02  3.6606e-03  1.8371e-03  2.2189e-02  1.7335e-02  2.4050e-03  0:00:36  777

 Reversed flow on 1 face (0.6% area) of pressure-outlet 4.

 Reversed flow on 1 face (0.6% area) of pressure-outlet 5.
   224  2.3150e-02  3.6003e-03  1.8458e-03  2.2634e-02  1.7444e-02  2.3952e-03  0:00:29  776

 Reversed flow on 1 face (0.6% area) of pressure-outlet 4.

 Reversed flow on 1 face (0.6% area) of pressure-outlet 5.
   225  2.3568e-02  3.5382e-03  1.8530e-03  2.3035e-02  1.7531e-02  2.3830e-03  0:02:58  775

 Reversed flow on 1 face (0.6% area) of pressure-outlet 4.

 Reversed flow on 1 face (0.6% area) of pressure-outlet 5.
   226  2.3916e-02  3.4780e-03  1.8572e-03  2.3364e-02  1.7529e-02  2.3704e-03  0:02:22  774

 Reversed flow on 1 face (0.6% area) of pressure-outlet 4.

 Reversed flow on 1 face (0.6% area) of pressure-outlet 5.
   227  2.4148e-02  3.4161e-03  1.8559e-03  2.3579e-02  1.7471e-02  2.3574e-03  0:01:54  773

 Reversed flow on 1 face (0.6% area) of pressure-outlet 4.

 Reversed flow on 1 face (0.6% area) of pressure-outlet 5.
   228  2.4286e-02  3.3519e-03  1.8517e-03  2.3701e-02  1.7446e-02  2.3437e-03  0:01:31  772

 Reversed flow on 1 face (0.6% area) of pressure-outlet 4.

 Reversed flow on 1 face (0.6% area) of pressure-outlet 5.
   229  2.4330e-02  3.2871e-03  1.8465e-03  2.3730e-02  1.7390e-02  2.3276e-03  0:01:12  771

 Reversed flow on 1 face (0.6% area) of pressure-outlet 4.

 Reversed flow on 1 face (0.6% area) of pressure-outlet 5.
   230  2.4195e-02  3.2293e-03  1.8362e-03  2.3583e-02  1.7329e-02  2.3089e-03  0:00:58  770

 Reversed flow on 1 face (0.6% area) of pressure-outlet 4.

 Reversed flow on 1 face (0.6% area) of pressure-outlet 5.
   231  2.3915e-02  3.1621e-03  1.8178e-03  2.3294e-02  1.7288e-02  2.2928e-03  0:00:46  769

 Reversed flow on 1 face (0.6% area) of pressure-outlet 4.

 Reversed flow on 1 face (0.6% area) of pressure-outlet 5.

  iter  continuity  x-velocity  y-velocity      energy           k       omega     time/iter
   232  2.3434e-02  3.0915e-03  1.7897e-03  2.2808e-02  1.7246e-02  2.2774e-03  0:00:37  768

 Reversed flow on 1 face (0.6% area) of pressure-outlet 4.

 Reversed flow on 1 face (0.6% area) of pressure-outlet 5.
   233  2.2808e-02  3.0304e-03  1.7502e-03  2.2181e-02  1.7143e-02  2.2597e-03  0:03:03  767

 Reversed flow on 1 face (0.6% area) of pressure-outlet 4.

 Reversed flow on 1 face (0.6% area) of pressure-outlet 5.
   234  2.2087e-02  2.9714e-03  1.7026e-03  2.1463e-02  1.7022e-02  2.2416e-03  0:02:26  766

 Reversed flow on 1 face (0.6% area) of pressure-outlet 4.

 Reversed flow on 1 face (0.6% area) of pressure-outlet 5.
   235  2.1283e-02  2.9113e-03  1.6456e-03  2.0665e-02  1.6862e-02  2.2245e-03  0:01:57  765

 Reversed flow on 1 face (0.6% area) of pressure-outlet 4.

 Reversed flow on 1 face (0.6% area) of pressure-outlet 5.
   236  2.0404e-02  2.8510e-03  1.5808e-03  1.9795e-02  1.6757e-02  2.2087e-03  0:01:33  764

 Reversed flow on 1 face (0.6% area) of pressure-outlet 4.

 Reversed flow on 1 face (0.6% area) of pressure-outlet 5.
   237  1.9480e-02  2.7952e-03  1.5113e-03  1.8882e-02  1.6642e-02  2.1931e-03  0:01:15  763

 Reversed flow on 1 face (0.6% area) of pressure-outlet 4.

 Reversed flow on 1 face (0.6% area) of pressure-outlet 5.
   238  1.8552e-02  2.7401e-03  1.4388e-03  1.7966e-02  1.6462e-02  2.1694e-03  0:01:00  762

 Reversed flow on 1 face (0.6% area) of pressure-outlet 4.

 Reversed flow on 1 face (0.6% area) of pressure-outlet 5.
   239  1.7648e-02  2.6878e-03  1.3670e-03  1.7076e-02  1.6245e-02  2.1444e-03  0:00:48  761

 Reversed flow on 1 face (0.6% area) of pressure-outlet 4.

 Reversed flow on 1 face (0.6% area) of pressure-outlet 5.
   240  1.6787e-02  2.6330e-03  1.2973e-03  1.6230e-02  1.6054e-02  2.1236e-03  0:03:10  760

 Reversed flow on 1 face (0.6% area) of pressure-outlet 4.

 Reversed flow on 1 face (0.6% area) of pressure-outlet 5.
   241  1.6005e-02  2.5851e-03  1.2301e-03  1.5463e-02  1.5912e-02  2.1029e-03  0:02:32  759

 Reversed flow on 1 face (0.6% area) of pressure-outlet 4.

 Reversed flow on 1 face (0.6% area) of pressure-outlet 5.
   242  1.5343e-02  2.5413e-03  1.1692e-03  1.4814e-02  1.5754e-02  2.0814e-03  0:02:01  758

 Reversed flow on 1 face (0.6% area) of pressure-outlet 4.

 Reversed flow on 1 face (0.6% area) of pressure-outlet 5.

  iter  continuity  x-velocity  y-velocity      energy           k       omega     time/iter
   243  1.4804e-02  2.4963e-03  1.1158e-03  1.4289e-02  1.5561e-02  2.0596e-03  0:01:37  757

 Reversed flow on 1 face (0.6% area) of pressure-outlet 4.

 Reversed flow on 1 face (0.6% area) of pressure-outlet 5.
   244  1.4392e-02  2.4591e-03  1.0699e-03  1.3888e-02  1.5395e-02  2.0372e-03  0:01:17  756

 Reversed flow on 1 face (0.6% area) of pressure-outlet 4.

 Reversed flow on 1 face (0.6% area) of pressure-outlet 5.
   245  1.4095e-02  2.4287e-03  1.0319e-03  1.3599e-02  1.5245e-02  2.0160e-03  0:01:02  755

 Reversed flow on 1 face (0.6% area) of pressure-outlet 4.

 Reversed flow on 1 face (0.6% area) of pressure-outlet 5.
   246  1.3895e-02  2.3922e-03  1.0019e-03  1.3405e-02  1.5125e-02  1.9956e-03  0:00:49  754

 Reversed flow on 1 face (0.6% area) of pressure-outlet 4.

 Reversed flow on 1 face (0.6% area) of pressure-outlet 5.
   247  1.3775e-02  2.3552e-03  9.7899e-04  1.3291e-02  1.4979e-02  1.9769e-03  0:00:39  753

 Reversed flow on 1 face (0.6% area) of pressure-outlet 4.

 Reversed flow on 1 face (0.6% area) of pressure-outlet 5.
   248  1.3714e-02  2.3230e-03  9.6376e-04  1.3233e-02  1.4796e-02  1.9610e-03  0:00:32  752

 Reversed flow on 1 face (0.6% area) of pressure-outlet 4.

 Reversed flow on 1 face (0.6% area) of pressure-outlet 5.
   249  1.3686e-02  2.3024e-03  9.5301e-04  1.3207e-02  1.4578e-02  1.9446e-03  0:00:25  751

 Reversed flow on 1 face (0.6% area) of pressure-outlet 4.

 Reversed flow on 1 face (0.6% area) of pressure-outlet 5.
   250  1.3672e-02  2.2774e-03  9.4297e-04  1.3193e-02  1.4364e-02  1.9264e-03  0:00:20  750

 Reversed flow on 1 face (0.6% area) of pressure-outlet 4.

 Reversed flow on 1 face (0.6% area) of pressure-outlet 5.
   251  1.3662e-02  2.2543e-03  9.3511e-04  1.3184e-02  1.4177e-02  1.9082e-03  0:02:46  749

 Reversed flow on 1 face (0.6% area) of pressure-outlet 4.

 Reversed flow on 1 face (0.6% area) of pressure-outlet 5.
   252  1.3643e-02  2.2303e-03  9.2841e-04  1.3165e-02  1.3977e-02  1.8868e-03  0:02:13  748

 Reversed flow on 1 face (0.6% area) of pressure-outlet 4.

 Reversed flow on 1 face (0.6% area) of pressure-outlet 5.
   253  1.3611e-02  2.2087e-03  9.2023e-04  1.3132e-02  1.3773e-02  1.8715e-03  0:01:46  747

 Reversed flow on 1 face (0.6% area) of pressure-outlet 4.

 Reversed flow on 1 face (0.6% area) of pressure-outlet 5.

  iter  continuity  x-velocity  y-velocity      energy           k       omega     time/iter
   254  1.3562e-02  2.1867e-03  9.0821e-04  1.3083e-02  1.3608e-02  1.8559e-03  0:01:25  746

 Reversed flow on 1 face (0.6% area) of pressure-outlet 4.

 Reversed flow on 1 face (0.6% area) of pressure-outlet 5.
   255  1.3506e-02  2.1639e-03  8.9258e-04  1.3026e-02  1.3441e-02  1.8398e-03  0:01:08  745

 Reversed flow on 1 face (0.6% area) of pressure-outlet 4.

 Reversed flow on 1 face (0.6% area) of pressure-outlet 5.
   256  1.3443e-02  2.1445e-03  8.7756e-04  1.2963e-02  1.3279e-02  1.8257e-03  0:00:54  744

 Reversed flow on 1 face (0.6% area) of pressure-outlet 4.

 Reversed flow on 1 face (0.6% area) of pressure-outlet 5.
   257  1.3374e-02  2.1247e-03  8.6641e-04  1.2894e-02  1.3088e-02  1.8129e-03  0:00:43  743

 Reversed flow on 1 face (0.6% area) of pressure-outlet 4.

 Reversed flow on 1 face (0.6% area) of pressure-outlet 5.
   258  1.3298e-02  2.1063e-03  8.5641e-04  1.2818e-02  1.2891e-02  1.7981e-03  0:00:34  742

 Reversed flow on 1 face (0.6% area) of pressure-outlet 4.

 Reversed flow on 1 face (0.6% area) of pressure-outlet 5.
   259  1.3214e-02  2.0899e-03  8.4560e-04  1.2735e-02  1.2691e-02  1.7820e-03  0:00:28  741

 Reversed flow on 1 face (0.6% area) of pressure-outlet 4.

 Reversed flow on 1 face (0.6% area) of pressure-outlet 5.
   260  1.3114e-02  2.0666e-03  8.3564e-04  1.2637e-02  1.2514e-02  1.7665e-03  0:00:22  740

 Reversed flow on 1 face (0.6% area) of pressure-outlet 4.

 Reversed flow on 1 face (0.6% area) of pressure-outlet 5.
   261  1.2991e-02  2.0496e-03  8.2872e-04  1.2517e-02  1.2347e-02  1.7502e-03  0:00:18  739

 Reversed flow on 1 face (0.6% area) of pressure-outlet 4.

 Reversed flow on 1 face (0.6% area) of pressure-outlet 5.
   262  1.2839e-02  2.0338e-03  8.2710e-04  1.2370e-02  1.2167e-02  1.7342e-03  0:02:42  738

 Reversed flow on 1 face (0.6% area) of pressure-outlet 4.

 Reversed flow on 1 face (0.6% area) of pressure-outlet 5.
   263  1.2655e-02  2.0263e-03  8.2548e-04  1.2191e-02  1.1982e-02  1.7184e-03  0:02:09  737

 Reversed flow on 1 face (0.6% area) of pressure-outlet 4.

 Reversed flow on 1 face (0.6% area) of pressure-outlet 5.
   264  1.2435e-02  2.0122e-03  8.2042e-04  1.1978e-02  1.1809e-02  1.7009e-03  0:01:43  736

 Reversed flow on 1 face (0.6% area) of pressure-outlet 4.

 Reversed flow on 1 face (0.6% area) of pressure-outlet 5.

  iter  continuity  x-velocity  y-velocity      energy           k       omega     time/iter
   265  1.2179e-02  1.9947e-03  8.1830e-04  1.1730e-02  1.1610e-02  1.6824e-03  0:01:22  735

 Reversed flow on 1 face (0.6% area) of pressure-outlet 4.

 Reversed flow on 1 face (0.6% area) of pressure-outlet 5.
   266  1.1891e-02  1.9777e-03  8.1790e-04  1.1452e-02  1.1432e-02  1.6656e-03  0:01:06  734

 Reversed flow on 1 face (0.6% area) of pressure-outlet 4.

 Reversed flow on 1 face (0.6% area) of pressure-outlet 5.
   267  1.1582e-02  1.9626e-03  8.1560e-04  1.1152e-02  1.1259e-02  1.6483e-03  0:00:53  733

 Reversed flow on 1 face (0.6% area) of pressure-outlet 4.

 Reversed flow on 1 face (0.6% area) of pressure-outlet 5.
   268  1.1263e-02  1.9470e-03  8.0759e-04  1.0842e-02  1.1088e-02  1.6332e-03  0:00:42  732

 Reversed flow on 1 face (0.6% area) of pressure-outlet 4.

 Reversed flow on 1 face (0.6% area) of pressure-outlet 5.
   269  1.0948e-02  1.9356e-03  7.9884e-04  1.0537e-02  1.0916e-02  1.6174e-03  0:00:34  731

 Reversed flow on 1 face (0.6% area) of pressure-outlet 4.

 Reversed flow on 1 face (0.6% area) of pressure-outlet 5.
   270  1.0657e-02  1.9229e-03  7.9389e-04  1.0253e-02  1.0747e-02  1.6025e-03  0:00:27  730

 Reversed flow on 1 face (0.6% area) of pressure-outlet 4.

 Reversed flow on 1 face (0.6% area) of pressure-outlet 5.
   271  1.0398e-02  1.9166e-03  7.9061e-04  1.0001e-02  1.0594e-02  1.5856e-03  0:00:21  729

 Reversed flow on 1 face (0.6% area) of pressure-outlet 4.

 Reversed flow on 1 face (0.6% area) of pressure-outlet 5.
   272  1.0183e-02  1.9055e-03  7.8557e-04  9.7909e-03  1.0435e-02  1.5689e-03  0:02:43  728

 Reversed flow on 1 face (0.6% area) of pressure-outlet 4.

 Reversed flow on 1 face (0.6% area) of pressure-outlet 5.
   273  1.0018e-02  1.8971e-03  7.8150e-04  9.6295e-03  1.0281e-02  1.5538e-03  0:02:10  727

 Reversed flow on 1 face (0.6% area) of pressure-outlet 4.

 Reversed flow on 1 face (0.6% area) of pressure-outlet 5.
   274  9.9072e-03  1.8858e-03  7.7778e-04  9.5203e-03  1.0127e-02  1.5373e-03  0:01:44  726

 Reversed flow on 1 face (0.6% area) of pressure-outlet 4.

 Reversed flow on 1 face (0.6% area) of pressure-outlet 5.
   275  9.8472e-03  1.8678e-03  7.7535e-04  9.4607e-03  9.9731e-03  1.5211e-03  0:01:23  725

 Reversed flow on 1 face (0.6% area) of pressure-outlet 4.

 Reversed flow on 1 face (0.6% area) of pressure-outlet 5.

  iter  continuity  x-velocity  y-velocity      energy           k       omega     time/iter
   276  9.8352e-03  1.8650e-03  7.7317e-04  9.4478e-03  9.8239e-03  1.5063e-03  0:01:06  724

 Reversed flow on 1 face (0.6% area) of pressure-outlet 4.

 Reversed flow on 1 face (0.6% area) of pressure-outlet 5.
   277  9.8654e-03  1.8558e-03  7.7349e-04  9.4760e-03  9.6813e-03  1.4932e-03  0:00:53  723

 Reversed flow on 1 face (0.6% area) of pressure-outlet 4.

 Reversed flow on 1 face (0.6% area) of pressure-outlet 5.
   278  9.9298e-03  1.8398e-03  7.8002e-04  9.5372e-03  9.5459e-03  1.4760e-03  0:00:42  722

 Reversed flow on 1 face (0.6% area) of pressure-outlet 4.

 Reversed flow on 1 face (0.6% area) of pressure-outlet 5.
   279  1.0022e-02  1.8302e-03  7.8247e-04  9.6258e-03  9.4107e-03  1.4618e-03  0:00:34  721

 Reversed flow on 1 face (0.6% area) of pressure-outlet 4.

 Reversed flow on 1 face (0.6% area) of pressure-outlet 5.
   280  1.0135e-02  1.8316e-03  7.8398e-04  9.7342e-03  9.2819e-03  1.4495e-03  0:00:27  720

 Reversed flow on 1 face (0.6% area) of pressure-outlet 4.

 Reversed flow on 1 face (0.6% area) of pressure-outlet 5.
   281  1.0261e-02  1.8280e-03  7.9152e-04  9.8542e-03  9.1595e-03  1.4381e-03  0:00:22  719

 Reversed flow on 1 face (0.6% area) of pressure-outlet 4.

 Reversed flow on 1 face (0.6% area) of pressure-outlet 5.
   282  1.0390e-02  1.8141e-03  7.9923e-04  9.9782e-03  9.0402e-03  1.4247e-03  0:00:17  718

 Reversed flow on 1 face (0.6% area) of pressure-outlet 4.

 Reversed flow on 1 face (0.6% area) of pressure-outlet 5.
   283  1.0516e-02  1.8115e-03  8.0447e-04  1.0099e-02  8.9268e-03  1.4112e-03  0:02:37  717

 Reversed flow on 1 face (0.6% area) of pressure-outlet 4.

 Reversed flow on 1 face (0.6% area) of pressure-outlet 5.
   284  1.0627e-02  1.8084e-03  8.1776e-04  1.0205e-02  8.8161e-03  1.3994e-03  0:02:06  716

 Reversed flow on 1 face (0.6% area) of pressure-outlet 4.

 Reversed flow on 1 face (0.6% area) of pressure-outlet 5.
   285  1.0712e-02  1.7997e-03  8.2478e-04  1.0285e-02  8.7101e-03  1.3846e-03  0:01:40  715

 Reversed flow on 1 face (0.6% area) of pressure-outlet 4.

 Reversed flow on 1 face (0.6% area) of pressure-outlet 5.
   286  1.0762e-02  1.7963e-03  8.3335e-04  1.0332e-02  8.6065e-03  1.3731e-03  0:01:20  714

 Reversed flow on 1 face (0.6% area) of pressure-outlet 4.

 Reversed flow on 2 faces (1.2% area) of pressure-outlet 5.

  iter  continuity  x-velocity  y-velocity      energy           k       omega     time/iter
   287  1.0772e-02  1.7921e-03  8.7309e-04  1.0339e-02  8.5048e-03  1.3613e-03  0:01:04  713

 Reversed flow on 1 face (0.6% area) of pressure-outlet 4.
   288  1.0739e-02  1.7931e-03  8.8927e-04  1.0304e-02  8.4092e-03  1.3502e-03  0:00:51  712

 Reversed flow on 1 face (0.6% area) of pressure-outlet 4.

 Reversed flow on 1 face (0.6% area) of pressure-outlet 5.
   289  1.0662e-02  1.7756e-03  8.6914e-04  1.0227e-02  8.3192e-03  1.3380e-03  0:00:41  711

 Reversed flow on 1 face (0.6% area) of pressure-outlet 4.
   290  1.0547e-02  1.7689e-03  8.7860e-04  1.0113e-02  8.2279e-03  1.3239e-03  0:00:33  710

 Reversed flow on 1 face (0.6% area) of pressure-outlet 4.

 Reversed flow on 1 face (0.6% area) of pressure-outlet 5.
   291  1.0401e-02  1.7662e-03  8.7338e-04  9.9698e-03  8.1384e-03  1.3110e-03  0:00:26  709

 Reversed flow on 1 face (0.6% area) of pressure-outlet 4.

 Reversed flow on 1 face (0.6% area) of pressure-outlet 5.
   292  1.0236e-02  1.7722e-03  8.7857e-04  9.8076e-03  8.0506e-03  1.2996e-03  0:02:42  708

 Reversed flow on 1 face (0.6% area) of pressure-outlet 4.

 Reversed flow on 1 face (0.6% area) of pressure-outlet 5.
   293  1.0065e-02  1.7639e-03  8.8660e-04  9.6394e-03  7.9664e-03  1.2889e-03  0:02:10  707

 Reversed flow on 1 face (0.6% area) of pressure-outlet 4.

 Reversed flow on 1 face (0.6% area) of pressure-outlet 5.
   294  9.9025e-03  1.7648e-03  8.9194e-04  9.4796e-03  7.8854e-03  1.2803e-03  0:01:44  706

 Reversed flow on 1 face (0.6% area) of pressure-outlet 4.

 Reversed flow on 1 face (0.6% area) of pressure-outlet 5.
   295  9.7603e-03  1.7605e-03  8.9946e-04  9.3396e-03  7.8055e-03  1.2713e-03  0:01:23  705

 Reversed flow on 1 face (0.6% area) of pressure-outlet 4.

 Reversed flow on 1 face (0.6% area) of pressure-outlet 5.
   296  9.6468e-03  1.7607e-03  9.0303e-04  9.2272e-03  7.7233e-03  1.2616e-03  0:01:06  704

 Reversed flow on 1 face (0.6% area) of pressure-outlet 4.

 Reversed flow on 1 face (0.6% area) of pressure-outlet 5.
   297  9.5646e-03  1.7530e-03  9.0589e-04  9.1452e-03  7.6439e-03  1.2513e-03  0:00:53  703

 Reversed flow on 1 face (0.6% area) of pressure-outlet 4.

 Reversed flow on 1 face (0.6% area) of pressure-outlet 5.

  iter  continuity  x-velocity  y-velocity      energy           k       omega     time/iter
   298  9.5127e-03  1.7454e-03  9.1111e-04  9.0926e-03  7.5680e-03  1.2383e-03  0:00:42  702

 Reversed flow on 1 face (0.6% area) of pressure-outlet 4.

 Reversed flow on 1 face (0.6% area) of pressure-outlet 5.
   299  9.4909e-03  1.7304e-03  9.1291e-04  9.0689e-03  7.4926e-03  1.2255e-03  0:00:34  701

 Reversed flow on 1 face (0.6% area) of pressure-outlet 4.

 Reversed flow on 1 face (0.6% area) of pressure-outlet 5.
   300  9.4919e-03  1.7273e-03  9.2262e-04  9.0672e-03  7.4193e-03  1.2158e-03  0:00:27  700

 Reversed flow on 2 faces (1.2% area) of pressure-outlet 4.

 Reversed flow on 1 face (0.6% area) of pressure-outlet 5.
   301  9.5091e-03  1.7250e-03  9.5856e-04  9.0812e-03  7.3484e-03  1.2084e-03  0:00:22  699

 Reversed flow on 1 face (0.6% area) of pressure-outlet 5.
   302  9.5367e-03  1.7398e-03  9.6660e-04  9.1053e-03  7.2786e-03  1.2006e-03  0:02:37  698

 Reversed flow on 1 face (0.6% area) of pressure-outlet 4.

 Reversed flow on 1 face (0.6% area) of pressure-outlet 5.
   303  9.5642e-03  1.7414e-03  9.5303e-04  9.1293e-03  7.2102e-03  1.1919e-03  0:02:05  697

 Reversed flow on 1 face (0.6% area) of pressure-outlet 5.
   304  9.5911e-03  1.7324e-03  9.6901e-04  9.1532e-03  7.1422e-03  1.1850e-03  0:01:40  696

 Reversed flow on 1 face (0.6% area) of pressure-outlet 4.

 Reversed flow on 1 face (0.6% area) of pressure-outlet 5.
   305  9.6165e-03  1.7400e-03  9.6417e-04  9.1760e-03  7.0751e-03  1.1717e-03  0:01:20  695

 Reversed flow on 1 face (0.6% area) of pressure-outlet 4.

 Reversed flow on 1 face (0.6% area) of pressure-outlet 5.
   306  9.6367e-03  1.7376e-03  9.7676e-04  9.1933e-03  7.0098e-03  1.1591e-03  0:01:04  694

 Reversed flow on 1 face (0.6% area) of pressure-outlet 4.

 Reversed flow on 1 face (0.6% area) of pressure-outlet 5.
   307  9.6508e-03  1.7187e-03  9.8194e-04  9.2046e-03  6.9475e-03  1.1485e-03  0:00:51  693

 Reversed flow on 1 face (0.6% area) of pressure-outlet 4.

 Reversed flow on 1 face (0.6% area) of pressure-outlet 5.
   308  9.6566e-03  1.7158e-03  9.8383e-04  9.2078e-03  6.8876e-03  1.1388e-03  0:00:41  692

 Reversed flow on 1 face (0.6% area) of pressure-outlet 4.

 Reversed flow on 1 face (0.6% area) of pressure-outlet 5.

  iter  continuity  x-velocity  y-velocity      energy           k       omega     time/iter
   309  9.6529e-03  1.7006e-03  9.9550e-04  9.2018e-03  6.8270e-03  1.1294e-03  0:00:33  691

 Reversed flow on 1 face (0.6% area) of pressure-outlet 4.

 Reversed flow on 1 face (0.6% area) of pressure-outlet 5.
   310  9.6433e-03  1.7064e-03  1.0009e-03  9.1906e-03  6.7671e-03  1.1211e-03  0:00:26  690

 Reversed flow on 1 face (0.6% area) of pressure-outlet 4.

 Reversed flow on 1 face (0.6% area) of pressure-outlet 5.
   311  9.6293e-03  1.7154e-03  1.0018e-03  9.1753e-03  6.7078e-03  1.1143e-03  0:02:39  689

 Reversed flow on 1 face (0.6% area) of pressure-outlet 4.

 Reversed flow on 1 face (0.6% area) of pressure-outlet 5.
   312  9.6124e-03  1.7114e-03  1.0096e-03  9.1573e-03  6.6495e-03  1.1054e-03  0:02:07  688

 Reversed flow on 1 face (0.6% area) of pressure-outlet 4.

 Reversed flow on 1 face (0.6% area) of pressure-outlet 5.
   313  9.5948e-03  1.7147e-03  1.0162e-03  9.1389e-03  6.5919e-03  1.0916e-03  0:01:41  687

 Reversed flow on 1 face (0.6% area) of pressure-outlet 4.

 Reversed flow on 1 face (0.6% area) of pressure-outlet 5.
   314  9.5784e-03  1.7017e-03  1.0259e-03  9.1214e-03  6.5339e-03  1.0799e-03  0:01:21  686

 Reversed flow on 1 face (0.6% area) of pressure-outlet 4.

 Reversed flow on 1 face (0.6% area) of pressure-outlet 5.
   315  9.5617e-03  1.6954e-03  1.0312e-03  9.1035e-03  6.4795e-03  1.0717e-03  0:01:05  685

 Reversed flow on 1 face (0.6% area) of pressure-outlet 4.

 Reversed flow on 1 face (0.6% area) of pressure-outlet 5.
   316  9.5446e-03  1.6937e-03  1.0362e-03  9.0849e-03  6.4296e-03  1.0626e-03  0:00:52  684

 Reversed flow on 1 face (0.6% area) of pressure-outlet 4.

 Reversed flow on 1 face (0.6% area) of pressure-outlet 5.
   317  9.5251e-03  1.6821e-03  1.0412e-03  9.0644e-03  6.3807e-03  1.0536e-03  0:00:41  683

 Reversed flow on 1 face (0.6% area) of pressure-outlet 4.

 Reversed flow on 1 face (0.6% area) of pressure-outlet 5.
   318  9.5052e-03  1.6656e-03  1.0401e-03  9.0437e-03  6.3315e-03  1.0457e-03  0:00:33  682

 Reversed flow on 1 face (0.6% area) of pressure-outlet 4.

 Reversed flow on 1 face (0.6% area) of pressure-outlet 5.
   319  9.4873e-03  1.6708e-03  1.0422e-03  9.0253e-03  6.2809e-03  1.0373e-03  0:00:26  681

 Reversed flow on 1 face (0.6% area) of pressure-outlet 4.

 Reversed flow on 1 face (0.6% area) of pressure-outlet 5.

  iter  continuity  x-velocity  y-velocity      energy           k       omega     time/iter
   320  9.4695e-03  1.6695e-03  1.0478e-03  9.0071e-03  6.2293e-03  1.0276e-03  0:00:21  680

 Reversed flow on 1 face (0.6% area) of pressure-outlet 4.

 Reversed flow on 1 face (0.6% area) of pressure-outlet 5.
   321  9.4507e-03  1.6689e-03  1.0510e-03  8.9879e-03  6.1761e-03  1.0153e-03  0:02:33  679

 Reversed flow on 1 face (0.6% area) of pressure-outlet 4.

 Reversed flow on 1 face (0.6% area) of pressure-outlet 5.
   322  9.4283e-03  1.6671e-03  1.0588e-03  8.9651e-03  6.1224e-03  1.0042e-03  0:02:02  678

 Reversed flow on 1 face (0.6% area) of pressure-outlet 4.

 Reversed flow on 1 face (0.6% area) of pressure-outlet 5.
   323  9.3996e-03  1.6504e-03  1.0648e-03  8.9362e-03  6.0700e-03  9.9411e-04  0:01:37  677

 Reversed flow on 1 face (0.6% area) of pressure-outlet 4.

 Reversed flow on 1 face (0.6% area) of pressure-outlet 5.
   324  9.3661e-03  1.6361e-03  1.0630e-03  8.9028e-03  6.0183e-03  9.8576e-04  0:01:18  676

 Reversed flow on 1 face (0.6% area) of pressure-outlet 4.

 Reversed flow on 1 face (0.6% area) of pressure-outlet 5.
   325  9.3273e-03  1.6319e-03  1.0651e-03  8.8645e-03  5.9675e-03  9.7840e-04  0:01:02  675

 Reversed flow on 1 face (0.6% area) of pressure-outlet 4.

 Reversed flow on 1 face (0.6% area) of pressure-outlet 5.
   326  9.2843e-03  1.6247e-03  1.0648e-03  8.8221e-03  5.9168e-03  9.6933e-04  0:00:50  674

 Reversed flow on 1 face (0.6% area) of pressure-outlet 4.

 Reversed flow on 1 face (0.6% area) of pressure-outlet 5.
   327  9.2370e-03  1.6129e-03  1.0645e-03  8.7757e-03  5.8646e-03  9.5970e-04  0:00:40  673

 Reversed flow on 1 face (0.6% area) of pressure-outlet 4.

 Reversed flow on 1 face (0.6% area) of pressure-outlet 5.
   328  9.1860e-03  1.6123e-03  1.0668e-03  8.7257e-03  5.8115e-03  9.4998e-04  0:00:32  672

 Reversed flow on 1 face (0.6% area) of pressure-outlet 4.

 Reversed flow on 1 face (0.6% area) of pressure-outlet 5.
   329  9.1299e-03  1.6041e-03  1.0678e-03  8.6708e-03  5.7588e-03  9.4006e-04  0:00:25  671

 Reversed flow on 1 face (0.6% area) of pressure-outlet 4.

 Reversed flow on 1 face (0.6% area) of pressure-outlet 5.
   330  9.0704e-03  1.6060e-03  1.0720e-03  8.6130e-03  5.7070e-03  9.2984e-04  0:00:20  670

 Reversed flow on 1 face (0.6% area) of pressure-outlet 4.

 Reversed flow on 1 face (0.6% area) of pressure-outlet 5.

  iter  continuity  x-velocity  y-velocity      energy           k       omega     time/iter
   331  9.0092e-03  1.5976e-03  1.0674e-03  8.5534e-03  5.6545e-03  9.2075e-04  0:02:30  669

 Reversed flow on 1 face (0.6% area) of pressure-outlet 4.

 Reversed flow on 1 face (0.6% area) of pressure-outlet 5.
   332  8.9479e-03  1.5833e-03  1.0638e-03  8.4937e-03  5.6036e-03  9.1213e-04  0:02:00  668

 Reversed flow on 1 face (0.6% area) of pressure-outlet 4.

 Reversed flow on 1 face (0.6% area) of pressure-outlet 5.
   333  8.8875e-03  1.5694e-03  1.0660e-03  8.4350e-03  5.5537e-03  9.0460e-04  0:01:36  667

 Reversed flow on 1 face (0.6% area) of pressure-outlet 4.

 Reversed flow on 1 face (0.6% area) of pressure-outlet 5.
   334  8.8302e-03  1.5674e-03  1.0640e-03  8.3792e-03  5.5039e-03  8.9525e-04  0:01:16  666

 Reversed flow on 1 face (0.6% area) of pressure-outlet 4.

 Reversed flow on 1 face (0.6% area) of pressure-outlet 5.
   335  8.7729e-03  1.5549e-03  1.0621e-03  8.3236e-03  5.4553e-03  8.8711e-04  0:01:01  665

 Reversed flow on 1 face (0.6% area) of pressure-outlet 4.

 Reversed flow on 1 face (0.6% area) of pressure-outlet 5.
   336  8.7143e-03  1.5471e-03  1.0614e-03  8.2667e-03  5.4085e-03  8.7879e-04  0:00:49  664

 Reversed flow on 1 face (0.6% area) of pressure-outlet 4.

 Reversed flow on 1 face (0.6% area) of pressure-outlet 5.
   337  8.6540e-03  1.5417e-03  1.0583e-03  8.2082e-03  5.3597e-03  8.6765e-04  0:00:39  663

 Reversed flow on 1 face (0.6% area) of pressure-outlet 4.

 Reversed flow on 1 face (0.6% area) of pressure-outlet 5.
   338  8.5926e-03  1.5217e-03  1.0576e-03  8.1487e-03  5.3121e-03  8.5917e-04  0:00:31  662

 Reversed flow on 1 face (0.6% area) of pressure-outlet 4.

 Reversed flow on 1 face (0.6% area) of pressure-outlet 5.
   339  8.5303e-03  1.5054e-03  1.0553e-03  8.0882e-03  5.2652e-03  8.5260e-04  0:00:25  661

 Reversed flow on 1 face (0.6% area) of pressure-outlet 4.

 Reversed flow on 1 face (0.6% area) of pressure-outlet 5.
   340  8.4659e-03  1.5013e-03  1.0480e-03  8.0259e-03  5.2189e-03  8.4696e-04  0:00:20  660

 Reversed flow on 1 face (0.6% area) of pressure-outlet 4.

 Reversed flow on 1 face (0.6% area) of pressure-outlet 5.
   341  8.3986e-03  1.4927e-03  1.0402e-03  7.9609e-03  5.1731e-03  8.3767e-04  0:00:16  659

 Reversed flow on 1 face (0.6% area) of pressure-outlet 4.

 Reversed flow on 1 face (0.6% area) of pressure-outlet 5.

[...]

 Reversed flow on 1 face (0.6% area) of pressure-outlet 5.
  2283  6.9003e-05  9.5445e-05  7.8332e-05  6.3202e-05  3.1850e-05  7.9472e-06  0:00:03   47

 Reversed flow on 1 face (0.6% area) of pressure-outlet 4.

 Reversed flow on 1 face (0.6% area) of pressure-outlet 5.
  2284  5.9967e-05  8.7734e-05  7.0761e-05  5.5725e-05  3.1601e-05  7.6269e-06  0:00:02   46

 Reversed flow on 1 face (0.6% area) of pressure-outlet 4.

 Reversed flow on 1 face (0.6% area) of pressure-outlet 5.
  2285  5.5074e-05  8.2160e-05  6.8921e-05  5.2220e-05  3.1370e-05  7.6656e-06  0:00:02   45

 Reversed flow on 1 face (0.6% area) of pressure-outlet 4.

 Reversed flow on 1 face (0.6% area) of pressure-outlet 5.
  2286  5.3973e-05  7.8317e-05  6.6923e-05  5.1250e-05  3.1192e-05  7.8886e-06  0:00:01   44

 Reversed flow on 1 face (0.6% area) of pressure-outlet 4.

 Reversed flow on 1 face (0.6% area) of pressure-outlet 5.

  iter  continuity  x-velocity  y-velocity      energy           k       omega     time/iter
  2287  5.4663e-05  7.8014e-05  6.3127e-05  5.1525e-05  3.1034e-05  7.9137e-06  0:00:10   43

 Reversed flow on 1 face (0.6% area) of pressure-outlet 4.

 Reversed flow on 1 face (0.6% area) of pressure-outlet 5.
  2288  5.8333e-05  8.7326e-05  5.9811e-05  5.4692e-05  3.0914e-05  7.8061e-06  0:00:08   42

 Reversed flow on 1 face (0.6% area) of pressure-outlet 4.

 Reversed flow on 1 face (0.6% area) of pressure-outlet 5.
  2289  5.9191e-05  9.3087e-05  5.9565e-05  5.5324e-05  3.0856e-05  7.6525e-06  0:00:06   41

 Reversed flow on 2 faces (1.2% area) of pressure-outlet 4.

 Reversed flow on 1 face (0.6% area) of pressure-outlet 5.
  2290  6.0127e-05  9.7837e-05  2.2831e-04  5.6497e-05  3.0844e-05  7.7900e-06  0:00:05   40

 Reversed flow on 1 face (0.6% area) of pressure-outlet 5.
  2291  1.2762e-04  2.1862e-04  2.7478e-04  1.1951e-04  3.0885e-05  9.4468e-06  0:00:04   39

 Reversed flow on 1 face (0.6% area) of pressure-outlet 4.

 Reversed flow on 1 face (0.6% area) of pressure-outlet 5.
  2292  7.4419e-05  1.2936e-04  1.3290e-04  6.9198e-05  3.0913e-05  7.6712e-06  0:00:03   38

 Reversed flow on 1 face (0.6% area) of pressure-outlet 4.

 Reversed flow on 2 faces (1.2% area) of pressure-outlet 5.
  2293  7.0359e-05  1.1059e-04  2.2518e-04  6.5663e-05  3.1005e-05  8.5666e-06  0:00:02   37

 Reversed flow on 1 face (0.6% area) of pressure-outlet 4.
  2294  1.3444e-04  2.4343e-04  2.6897e-04  1.2664e-04  3.1114e-05  1.0105e-05  0:00:02   36

 Reversed flow on 1 face (0.6% area) of pressure-outlet 4.

 Reversed flow on 1 face (0.6% area) of pressure-outlet 5.
  2295  8.1484e-05  1.3661e-04  1.3066e-04  7.6096e-05  3.1234e-05  7.9679e-06  0:00:01   35

 Reversed flow on 1 face (0.6% area) of pressure-outlet 4.

 Reversed flow on 1 face (0.6% area) of pressure-outlet 5.
  2296  7.5475e-05  1.0724e-04  9.0255e-05  7.2214e-05  3.1383e-05  8.5152e-06  0:00:01   34

 Reversed flow on 1 face (0.6% area) of pressure-outlet 4.

 Reversed flow on 1 face (0.6% area) of pressure-outlet 5.
  2297  7.0632e-05  9.4882e-05  7.5370e-05  6.6001e-05  3.1500e-05  8.4775e-06  0:00:07   33

 Reversed flow on 1 face (0.6% area) of pressure-outlet 4.

 Reversed flow on 1 face (0.6% area) of pressure-outlet 5.

  iter  continuity  x-velocity  y-velocity      energy           k       omega     time/iter
  2298  6.2598e-05  7.9692e-05  6.5069e-05  5.8468e-05  3.1602e-05  8.2759e-06  0:00:06   32

 Reversed flow on 1 face (0.6% area) of pressure-outlet 4.

 Reversed flow on 1 face (0.6% area) of pressure-outlet 5.
  2299  5.8256e-05  7.9294e-05  6.1416e-05  5.4552e-05  3.1671e-05  8.3340e-06  0:00:04   31

 Reversed flow on 1 face (0.6% area) of pressure-outlet 4.

 Reversed flow on 1 face (0.6% area) of pressure-outlet 5.
  2300  5.8915e-05  8.6587e-05  6.1447e-05  5.5420e-05  3.1732e-05  8.2974e-06  0:00:03   30

 Reversed flow on 1 face (0.6% area) of pressure-outlet 4.

 Reversed flow on 1 face (0.6% area) of pressure-outlet 5.
  2301  6.0888e-05  9.2323e-05  6.2632e-05  5.7429e-05  3.1772e-05  8.1392e-06  0:00:03   29

 Reversed flow on 1 face (0.6% area) of pressure-outlet 4.

 Reversed flow on 1 face (0.6% area) of pressure-outlet 5.
  2302  6.0391e-05  9.5394e-05  6.3988e-05  5.6817e-05  3.1819e-05  7.9314e-06  0:00:02   28

 Reversed flow on 1 face (0.6% area) of pressure-outlet 4.

 Reversed flow on 1 face (0.6% area) of pressure-outlet 5.
  2303  6.0112e-05  9.6737e-05  6.5067e-05  5.6591e-05  3.1837e-05  7.8769e-06  0:00:02   27

 Reversed flow on 1 face (0.6% area) of pressure-outlet 4.

 Reversed flow on 1 face (0.6% area) of pressure-outlet 5.
  2304  6.4762e-05  1.0695e-04  6.5367e-05  6.1345e-05  3.1823e-05  7.7853e-06  0:00:01   26

 Reversed flow on 1 face (0.6% area) of pressure-outlet 4.

 Reversed flow on 1 face (0.6% area) of pressure-outlet 5.
  2305  7.2024e-05  1.1762e-04  6.5351e-05  6.8776e-05  3.1788e-05  7.6700e-06  0:00:06   25

 Reversed flow on 2 faces (1.2% area) of pressure-outlet 4.

 Reversed flow on 2 faces (1.2% area) of pressure-outlet 5.
  2306  7.4704e-05  1.2559e-04  3.0099e-04  7.1200e-05  3.1731e-05  8.0196e-06  0:00:05   24
  2307  1.6914e-04  3.0504e-04  3.7236e-04  1.5873e-04  3.1645e-05  1.1864e-05  0:00:03   23

 Reversed flow on 1 face (0.6% area) of pressure-outlet 4.

 Reversed flow on 1 face (0.6% area) of pressure-outlet 5.
  2308  7.8977e-05  1.3674e-04  1.7574e-04  7.1845e-05  3.1481e-05  7.8761e-06  0:00:03   22

 Reversed flow on 1 face (0.6% area) of pressure-outlet 4.

 Reversed flow on 1 face (0.6% area) of pressure-outlet 5.

  iter  continuity  x-velocity  y-velocity      energy           k       omega     time/iter
  2309  7.0018e-05  8.6551e-05  1.0963e-04  6.5101e-05  3.1338e-05  8.6776e-06  0:00:02   21

 Reversed flow on 1 face (0.6% area) of pressure-outlet 4.

 Reversed flow on 1 face (0.6% area) of pressure-outlet 5.
  2310  6.6953e-05  6.9217e-05  8.2486e-05  6.0434e-05  3.1159e-05  7.9674e-06  0:00:02   20

 Reversed flow on 1 face (0.6% area) of pressure-outlet 4.

 Reversed flow on 1 face (0.6% area) of pressure-outlet 5.
  2311  5.6716e-05  6.3042e-05  6.5209e-05  5.2210e-05  3.0946e-05  7.5841e-06  0:00:01   19

 Reversed flow on 1 face (0.6% area) of pressure-outlet 4.

 Reversed flow on 1 face (0.6% area) of pressure-outlet 5.
  2312  4.8195e-05  5.8871e-05  6.0250e-05  4.5546e-05  3.0718e-05  8.0243e-06  0:00:01   18

 Reversed flow on 1 face (0.6% area) of pressure-outlet 4.

 Reversed flow on 1 face (0.6% area) of pressure-outlet 5.
  2313  4.7777e-05  6.0245e-05  5.8346e-05  4.5385e-05  3.0465e-05  8.3404e-06  0:00:01   17

 Reversed flow on 1 face (0.6% area) of pressure-outlet 4.

 Reversed flow on 1 face (0.6% area) of pressure-outlet 5.
  2314  5.0718e-05  6.6706e-05  5.7196e-05  4.7409e-05  3.0182e-05  8.3558e-06  0:00:01   16

 Reversed flow on 1 face (0.6% area) of pressure-outlet 4.

 Reversed flow on 1 face (0.6% area) of pressure-outlet 5.
  2315  5.0933e-05  7.4289e-05  5.7731e-05  4.6756e-05  2.9878e-05  8.1295e-06  0:00:03   15

 Reversed flow on 1 face (0.6% area) of pressure-outlet 4.

 Reversed flow on 1 face (0.6% area) of pressure-outlet 5.
  2316  5.0271e-05  7.8054e-05  6.1609e-05  4.5797e-05  2.9561e-05  7.8560e-06  0:00:03   14

 Reversed flow on 1 face (0.6% area) of pressure-outlet 4.

 Reversed flow on 1 face (0.6% area) of pressure-outlet 5.
  2317  5.0488e-05  8.1077e-05  6.6790e-05  4.6326e-05  2.9235e-05  7.5440e-06  0:00:02   13

 Reversed flow on 1 face (0.6% area) of pressure-outlet 4.

 Reversed flow on 1 face (0.6% area) of pressure-outlet 5.
  2318  5.0856e-05  8.0544e-05  7.0135e-05  4.7145e-05  2.8921e-05  7.2595e-06  0:00:01   12

 Reversed flow on 1 face (0.6% area) of pressure-outlet 4.

 Reversed flow on 1 face (0.6% area) of pressure-outlet 5.
  2319  5.0307e-05  7.5727e-05  6.9843e-05  4.6828e-05  2.8606e-05  7.1753e-06  0:00:01   11

 Reversed flow on 1 face (0.6% area) of pressure-outlet 4.

 Reversed flow on 2 faces (1.2% area) of pressure-outlet 5.

  iter  continuity  x-velocity  y-velocity      energy           k       omega     time/iter
  2320  4.9151e-05  7.0249e-05  2.1593e-04  4.5612e-05  2.8302e-05  7.4684e-06  0:00:01   10

 Reversed flow on 1 face (0.6% area) of pressure-outlet 4.
  2321  1.2233e-04  2.2610e-04  2.6471e-04  1.1507e-04  2.8002e-05  9.3569e-06  0:00:01    9

 Reversed flow on 1 face (0.6% area) of pressure-outlet 4.

 Reversed flow on 1 face (0.6% area) of pressure-outlet 5.
  2322  6.4202e-05  1.0585e-04  1.2783e-04  5.8659e-05  2.7675e-05  7.2232e-06  0:00:00    8

 Reversed flow on 2 faces (1.2% area) of pressure-outlet 4.

 Reversed flow on 1 face (0.6% area) of pressure-outlet 5.
  2323  5.8371e-05  7.2245e-05  2.3587e-04  5.4882e-05  2.7409e-05  7.6595e-06  0:00:02    7

 Reversed flow on 1 face (0.6% area) of pressure-outlet 5.
  2324  1.2631e-04  2.1254e-04  2.7690e-04  1.1782e-04  2.7157e-05  9.1282e-06  0:00:01    6

 Reversed flow on 1 face (0.6% area) of pressure-outlet 4.

 Reversed flow on 1 face (0.6% area) of pressure-outlet 5.
  2325  6.7721e-05  1.1290e-04  1.3284e-04  6.2404e-05  2.6909e-05  7.2136e-06  0:00:01    5

 Reversed flow on 1 face (0.6% area) of pressure-outlet 4.

 Reversed flow on 1 face (0.6% area) of pressure-outlet 5.
  2326  6.0697e-05  8.5959e-05  8.9714e-05  5.6520e-05  2.6697e-05  7.9504e-06  0:00:00    4

 Reversed flow on 1 face (0.6% area) of pressure-outlet 4.

 Reversed flow on 1 face (0.6% area) of pressure-outlet 5.
  2327  6.0401e-05  8.2385e-05  6.9603e-05  5.5908e-05  2.6496e-05  7.6224e-06  0:00:00    3

 Reversed flow on 1 face (0.6% area) of pressure-outlet 4.

 Reversed flow on 1 face (0.6% area) of pressure-outlet 5.
  2328  5.5965e-05  8.7147e-05  5.9064e-05  5.2676e-05  2.6295e-05  7.4320e-06  0:00:00    2

 Reversed flow on 1 face (0.6% area) of pressure-outlet 4.

 Reversed flow on 1 face (0.6% area) of pressure-outlet 5.
  2329  5.3707e-05  9.2023e-05  5.9083e-05  5.1233e-05  2.6124e-05  7.5900e-06  0:00:00    1

 Reversed flow on 1 face (0.6% area) of pressure-outlet 4.

 Reversed flow on 1 face (0.6% area) of pressure-outlet 5.
  2330  5.5128e-05  9.6126e-05  6.0025e-05  5.2749e-05  2.5966e-05  7.7062e-06  0:00:00    0

Calculation complete.
(cx-gui-do cx-activate-item "Information*OK")
(cx-gui-do cx-activate-item "MenuBar*ReadSubMenu*Mesh...")
(cx-gui-do cx-set-toggle-button2 "Read Mesh Options*Table1(Options)*ToggleBox1*Replace mesh" #t)
(cx-gui-do cx-activate-item "Read Mesh Options*Table1(Options)*ToggleBox1*Replace mesh")
(cx-gui-do cx-activate-item "Read Mesh Options*PanelButtons*PushButton1(OK)")
(cx-gui-do cx-set-file-dialog-entries "Select File" '( "E:/MATLAB/RANS_optimisation/grid2/grid.msh") "All Mesh Files (*.msh* *.MSH* )")

Writing Settings file "C:\Users\ojj23\AppData\Local\Temp\2"...
	writing rp variables ... Done.
	writing domain variables ... Done.
	writing fluid-8 (type fluid) (mixture) ... Done.
	writing outlet (type pressure-outlet) (mixture) ... Done.
	writing inlet (type pressure-inlet) (mixture) ... Done.
	writing interior-2 (type interior) (mixture) ... Done.
	writing upper (type pressure-outlet) (mixture) ... Done.
	writing lower (type pressure-outlet) (mixture) ... Done.
	writing blade (type wall) (mixture) ... Done.
	writing zones map name-id ... Done.
Reading "E:/MATLAB/RANS_optimisation/grid2/grid.msh"...
Buffering for file scan...


       Clearing partially read grid.
  162912 quadrilateral cells, zone  8.
  325288 2D interior faces, zone  2.
Warning: Reversing 286 faces, zone  2.
     285 2D pressure-inlet faces, zone  3.
Warning: Reversing 285 faces, zone  3.
     573 2D pressure-outlet faces, zone  4.
Warning: Reversing 573 faces, zone  4.
     573 2D pressure-outlet faces, zone  5.
     249 2D pressure-outlet faces, zone  6.
     608 2D wall faces, zone  7.
Warning: Reversing 286 faces, zone  7.
  164056 nodes.

Building...
     mesh
	auto partitioning mesh by Metis (fast),
	distributing mesh
		parts................................,
		faces................................,
		nodes................................,
		cells................................,
        bandwidth reduction using Reverse Cuthill-McKee: 4976/83 = 59.9518
     materials,
     interface,
     domains,
     zones,
	fluid-8
	wall-7
	pressure-outlet-6
	pressure-outlet-5
	pressure-outlet-4
	pressure-inlet-3
	interior-2
     parallel,
Done.
 Setting zone id of fluid-8 to 8.
 Setting zone id of interior-2 to 2.
Done.

Setting fluid-8 (mixture) ... Done.
No zone with name outlet (type pressure-outlet) (mixture), skipped.
No zone with name inlet (type pressure-inlet) (mixture), skipped.
Setting interior-2 (mixture) ... Done.
No zone with name upper (type pressure-outlet) (mixture), skipped.
No zone with name lower (type pressure-outlet) (mixture), skipped.
No zone with name blade (type wall) (mixture), skipped.

Checking newly created zones for preferred zone IDs...
No zone with name blade (type wall) (mixture), skipped.

Found new zone. Assigning default settings to pressure-inlet-3 (type pressure-inlet).
Found new zone. Assigning default settings to pressure-outlet-4 (type pressure-outlet).
Found new zone. Assigning default settings to pressure-outlet-5 (type pressure-outlet).
Found new zone. Assigning default settings to pressure-outlet-6 (type pressure-outlet).
Found new zone. Assigning default settings to wall-7 (type wall).
/define/boundary-conditions/modify-zones/zone-name 3 Invalid zone.
inlet Invalid zone.

zone id/name [] /define/boundary-conditions/modify-zones/zone-name Invalid zone.
4 Invalid zone.
upper Invalid zone.

zone id/name [] /define/boundary-conditions/modify-zones/zone-name Invalid zone.
5 Invalid zone.
lower Invalid zone.

zone id/name [] /define/boundary-conditions/modify-zones/zone-name Invalid zone.
6 Invalid zone.
outlet
Invalid zone.
zone id/name [] /define/boundary-conditions/modify-zones/zone-name Invalid zone.
7 Invalid zone.
blade
Invalid zone.
zone id/name [] /define/materials/change-create Invalid zone.
air Invalid zone.
air Invalid zone.
yes Invalid zone.
ideal-gas Invalid zone.
yes Invalid zone.
constant Invalid zone.
1005 Invalid zone.
yes Invalid zone.
expression Invalid zone.
"DynamicViscosity*1005 [J/(kg K)]/0.72"No match found with "DynamicViscosity*1005 [J/(kg K)]/0.72"
 yes Invalid zone.
sutherland Invalid zone.
three-coefficient-method Invalid zone.
5.83247e-04 Invalid zone.
273 Invalid zone.
110.4 Invalid zone.
no Invalid zone.
no Invalid zone.
no
Invalid zone.
zone id/name [] /define/operating-conditions/operating-pressure Invalid zone.
0
Invalid zone.
zone id/name [] /define/models/viscous/kw-sst? Invalid zone.
yes
Invalid zone.
zone id/name [] /define/boundary-conditions/zone-type Invalid zone.
inlet Invalid zone.
pressure-inlet Invalid zone.

zone id/name [] /define/boundary-conditions/pressure-inlet Invalid zone.
inlet Invalid zone.
yes Invalid zone.
no Invalid zone.
74575.2 Invalid zone.
no Invalid zone.
46984 Invalid zone.
no Invalid zone.
300 Invalid zone.
no Invalid zone.
yes Invalid zone.
no Invalid zone.
no Invalid zone.
yes Invalid zone.
0.5 Invalid zone.
1
Invalid zone.
zone id/name [] /define/boundary-conditions/zone-type Invalid zone.
outlet Invalid zone.
pressure-outlet Invalid zone.

zone id/name [] /define/boundary-conditions/bc-settings/pressure-outlet Invalid zone.
0. Invalid zone.
65 Invalid zone.

zone id/name [] /define/boundary-conditions/pressure-outlet Invalid zone.
outlet Invalid zone.
yes Invalid zone.
no Invalid zone.
46984 Invalid zone.
no Invalid zone.
300 Invalid zone.
no Invalid zone.
yes Invalid zone.
no Invalid zone.
no Invalid zone.
yes Invalid zone.
0.5 Invalid zone.
1 Invalid zone.
yes Invalid zone.
yes Invalid zone.
no Invalid zone.
no
Invalid zone.
zone id/name [] /define/boundary-conditions/copy-bc Invalid zone.
outlet Invalid zone.
(upper lower)Invalid zone.

zone id/name [] /define/boundary-conditions/wall Invalid zone.
blade Invalid zone.
0 Invalid zone.
no Invalid zone.
0 Invalid zone.
no Invalid zone.
no Invalid zone.
no Invalid zone.
0 Invalid zone.
no Invalid zone.
no Invalid zone.
no Invalid zone.
no Invalid zone.
0 Invalid zone.
no Invalid zone.
0.5 Invalid zone.
no Invalid zone.
1
Invalid zone.
zone id/name [] (cx-gui-do cx-activate-item "MenuBar*ReadSubMenu*Case...")
The current case has not been saved.
OK to discard? [cancel] (cx-gui-do cx-activate-item "MenuBar*ReadSubMenu*Case...")
The current case has not been saved.
OK to discard? [cancel] OK
(cx-gui-do cx-set-file-dialog-entries "Select File" '( "grid.msh") "All Case Files (*.cas* *.msh* *.MSH* )")

Reading "E:/MATLAB/RANS_optimisation/grid2/grid.msh"...

Buffering for file scan...


       Clearing partially read grid.
  162912 quadrilateral cells, zone  8.
  325288 2D interior faces, zone  2.
Warning: Reversing 286 faces, zone  2.
     285 2D pressure-inlet faces, zone  3.
Warning: Reversing 285 faces, zone  3.
     573 2D pressure-outlet faces, zone  4.
Warning: Reversing 573 faces, zone  4.
     573 2D pressure-outlet faces, zone  5.
     249 2D pressure-outlet faces, zone  6.
     608 2D wall faces, zone  7.
Warning: Reversing 286 faces, zone  7.
  164056 nodes.

Building...
     mesh
	auto partitioning mesh by Metis (fast),
	distributing mesh
		parts................................,
		faces................................,
		nodes................................,
		cells................................,
        bandwidth reduction using Reverse Cuthill-McKee: 4976/83 = 59.9518
     materials,
     interface,
     domains,
     zones,
	fluid-8
	wall-7
	pressure-outlet-6
	pressure-outlet-5
	pressure-outlet-4
	pressure-inlet-3
	interior-2
     parallel,
Done.
(cx-gui-do cx-set-list-tree-selections "NavigationPane*List_Tree1" (list "Solution|Initialization"))
(cx-gui-do cx-set-list-tree-selections "NavigationPane*List_Tree1" (list "Solution|Initialization"))
(cx-gui-do cx-activate-item "NavigationPane*List_Tree1")
(cx-gui-do cx-set-list-tree-selections "NavigationPane*List_Tree1" (list "Solution|Initialization"))
/define/boundary-conditions/modify-zones/zone-name Please answer o[k] or c[ancel].
3 Please answer o[k] or c[ancel].
inlet Please answer o[k] or c[ancel].

The current case has not been saved.
OK to discard? [cancel] /define/boundary-conditions/modify-zones/zone-name Please answer o[k] or c[ancel].
4 Please answer o[k] or c[ancel].
upper Please answer o[k] or c[ancel].

The current case has not been saved.
OK to discard? [cancel] /define/boundary-conditions/modify-zones/zone-name Please answer o[k] or c[ancel].
5 Please answer o[k] or c[ancel].
lower Please answer o[k] or c[ancel].

The current case has not been saved.
OK to discard? [cancel] /define/boundary-conditions/modify-zones/zone-name Please answer o[k] or c[ancel].
6 Please answer o[k] or c[ancel].
outlet
Please answer o[k] or c[ancel].
The current case has not been saved.
OK to discard? [cancel] /define/boundary-conditions/modify-zones/zone-name Please answer o[k] or c[ancel].
7 Please answer o[k] or c[ancel].
blade
Please answer o[k] or c[ancel].
The current case has not been saved.
OK to discard? [cancel] /define/materials/change-create Please answer o[k] or c[ancel].
air Please answer o[k] or c[ancel].
air Please answer o[k] or c[ancel].
yes o
Invalid zone.
zone id/name [] 

//define/models/solver> q

//define/models> q

//define> q

> q
Use "exit" to leave the main menu.

> /exit y

Posting ANSYS Product Improvement Program performance data 
Done.
(cx-gui-do cx-activate-item "Question*OK")
